warn: Max ticks has already been set prior to setting it through the run call. In these cases the max ticks set through the `run` function is used
Global frequency set at 1000000000000 ticks per second
warn: No dot file generated. Please install pydot to generate the dot file and pdf.
src/mem/dram_interface.cc:690: warn: DRAM device capacity (16384 Mbytes) does not match the address range assigned (512 Mbytes)
src/mem/dram_interface.cc:690: warn: DRAM device capacity (16384 Mbytes) does not match the address range assigned (512 Mbytes)
src/base/statistics.hh:279: warn: One of the stats is a legacy stat. Legacy stat is a stat that does not belong to any statistics::Group. Legacy stat is deprecated.
src/base/remote_gdb.cc:418: warn: Sockets disabled, not accepting gdb connections
src/sim/process.cc:396: warn: Checkpoints for pipes, device drivers and sockets do not work.
gem5 Simulator System.  https://www.gem5.org
gem5 is copyrighted software; use the --copyright option for details.

gem5 version 24.0.0.1
gem5 compiled May 12 2025 10:39:29
gem5 started May 12 2025 11:53:44
gem5 executing on ce111.sci.unican.es, pid 1425632
command line: /nfs/home/ce/alonsoge/gem5/build/X86/gem5.opt --outdir=/nfs/home/ce/alonsoge/gem5/tfg/out/batch/NAS/generalO3/bt.W.x/iq_900/IQs_1 /nfs/home/ce/alonsoge/gem5/tfg/configs/restore-checkpoint.py --config generalO3 --ckpt_path /nfs/shared/ce/gem5/ckpts/x86/1core/1GB/NPB3.3-SER --application /nfs/shared/ce/gem5/bin/NPB3.3-SER/bt.W.x --num_cores 1 --mem_size 1 --works 10 --num_ticks 100000000000 --iq_size 900 --num_IQs 1 --num_ports 12 --num_DividedIQ_entries 900

info: Standard input is not a terminal, disabling listeners.
src/sim/simulate.cc:199: info: Entering event queue @ 110232026298.  Starting simulation...
Workend 1
src/sim/simulate.cc:199: info: Entering event queue @ 126691000848.  Starting simulation...
warn: No behavior was set by the user for work begin. Default behavior is resetting the stats and continuing.
src/sim/simulate.cc:199: info: Entering event queue @ 126691006509.  Starting simulation...
Workend 2
src/sim/simulate.cc:199: info: Entering event queue @ 142217725581.  Starting simulation...
src/sim/simulate.cc:199: info: Entering event queue @ 142217731575.  Starting simulation...
Workend 3
src/sim/simulate.cc:199: info: Entering event queue @ 157734527913.  Starting simulation...
src/sim/simulate.cc:199: info: Entering event queue @ 157734534573.  Starting simulation...
Workend 4
src/sim/simulate.cc:199: info: Entering event queue @ 173149368642.  Starting simulation...
src/sim/simulate.cc:199: info: Entering event queue @ 173149374636.  Starting simulation...
Workend 5
src/sim/simulate.cc:199: info: Entering event queue @ 188683790670.  Starting simulation...
src/sim/simulate.cc:199: info: Entering event queue @ 188683796664.  Starting simulation...
Workend 6
src/sim/simulate.cc:199: info: Entering event queue @ 203920537005.  Starting simulation...
src/sim/simulate.cc:199: info: Entering event queue @ 203920542999.  Starting simulation...
Workend 7
src/sim/simulate.cc:199: info: Entering event queue @ 219526673580.  Starting simulation...
src/sim/simulate.cc:199: info: Entering event queue @ 219526680240.  Starting simulation...
Workend 8
src/sim/simulate.cc:199: info: Entering event queue @ 234953336475.  Starting simulation...
src/sim/simulate.cc:199: info: Entering event queue @ 234953342469.  Starting simulation...
Workend 9
src/sim/simulate.cc:199: info: Entering event queue @ 250464520764.  Starting simulation...
src/sim/simulate.cc:199: info: Entering event queue @ 250464526758.  Starting simulation...
Workend 10
Exiting @ tick 265998776292 because workend.
