
---------- Begin Simulation Statistics ----------
simSeconds                                   0.050000                       # Number of seconds simulated (Second)
simTicks                                  50000000000                       # Number of ticks simulated (Tick)
finalTick                                491493394004                       # Number of ticks from beginning of simulation (restored from checkpoints and never reset) (Tick)
simFreq                                  1000000000000                       # The number of ticks per simulated second ((Tick/Second))
hostSeconds                                   5149.19                       # Real time elapsed on the host (Second)
hostTickRate                                  9710265                       # The number of ticks simulated per host second (ticks/s) ((Tick/Second))
hostMemory                                    1916116                       # Number of bytes of host memory used (Byte)
simInsts                                    269660713                       # Number of instructions simulated (Count)
simOps                                      434624693                       # Number of ops (including micro ops) simulated (Count)
hostInstRate                                    52370                       # Simulator instruction rate (inst/s) ((Count/Second))
hostOpRate                                      84406                       # Simulator op (including micro ops) rate (op/s) ((Count/Second))
board.cache_hierarchy.clusters.dptw_cache.blockedCycles::no_mshrs            0                       # number of cycles access was blocked (Cycle)
board.cache_hierarchy.clusters.dptw_cache.blockedCycles::no_targets            0                       # number of cycles access was blocked (Cycle)
board.cache_hierarchy.clusters.dptw_cache.blockedCauses::no_mshrs            0                       # number of times access was blocked (Count)
board.cache_hierarchy.clusters.dptw_cache.blockedCauses::no_targets            0                       # number of times access was blocked (Count)
board.cache_hierarchy.clusters.dptw_cache.avgBlocked::no_mshrs          nan                       # average number of cycles each access was blocked ((Cycle/Count))
board.cache_hierarchy.clusters.dptw_cache.avgBlocked::no_targets          nan                       # average number of cycles each access was blocked ((Cycle/Count))
board.cache_hierarchy.clusters.dptw_cache.replacements            0                       # number of replacements (Count)
board.cache_hierarchy.clusters.dptw_cache.power_state.pwrStateResidencyTicks::UNDEFINED 491493394004                       # Cumulative time (in ticks) in various power states (Tick)
board.cache_hierarchy.clusters.dptw_cache.tags.tagsInUse            0                       # Average ticks per tags in use ((Tick/Count))
board.cache_hierarchy.clusters.dptw_cache.tags.totalRefs            0                       # Total number of references to valid blocks. (Count)
board.cache_hierarchy.clusters.dptw_cache.tags.sampledRefs            0                       # Sample count of references to valid blocks. (Count)
board.cache_hierarchy.clusters.dptw_cache.tags.avgRefs          nan                       # Average number of references to valid blocks. ((Count/Count))
board.cache_hierarchy.clusters.dptw_cache.tags.warmupTick            0                       # The tick when the warmup percentage was hit. (Tick)
board.cache_hierarchy.clusters.dptw_cache.tags.tagAccesses            0                       # Number of tag accesses (Count)
board.cache_hierarchy.clusters.dptw_cache.tags.dataAccesses            0                       # Number of data accesses (Count)
board.cache_hierarchy.clusters.dptw_cache.tags.power_state.pwrStateResidencyTicks::UNDEFINED 491493394004                       # Cumulative time (in ticks) in various power states (Tick)
board.cache_hierarchy.clusters.iptw_cache.blockedCycles::no_mshrs            0                       # number of cycles access was blocked (Cycle)
board.cache_hierarchy.clusters.iptw_cache.blockedCycles::no_targets            0                       # number of cycles access was blocked (Cycle)
board.cache_hierarchy.clusters.iptw_cache.blockedCauses::no_mshrs            0                       # number of times access was blocked (Count)
board.cache_hierarchy.clusters.iptw_cache.blockedCauses::no_targets            0                       # number of times access was blocked (Count)
board.cache_hierarchy.clusters.iptw_cache.avgBlocked::no_mshrs          nan                       # average number of cycles each access was blocked ((Cycle/Count))
board.cache_hierarchy.clusters.iptw_cache.avgBlocked::no_targets          nan                       # average number of cycles each access was blocked ((Cycle/Count))
board.cache_hierarchy.clusters.iptw_cache.replacements            0                       # number of replacements (Count)
board.cache_hierarchy.clusters.iptw_cache.power_state.pwrStateResidencyTicks::UNDEFINED 491493394004                       # Cumulative time (in ticks) in various power states (Tick)
board.cache_hierarchy.clusters.iptw_cache.tags.tagsInUse            0                       # Average ticks per tags in use ((Tick/Count))
board.cache_hierarchy.clusters.iptw_cache.tags.totalRefs            0                       # Total number of references to valid blocks. (Count)
board.cache_hierarchy.clusters.iptw_cache.tags.sampledRefs            0                       # Sample count of references to valid blocks. (Count)
board.cache_hierarchy.clusters.iptw_cache.tags.avgRefs          nan                       # Average number of references to valid blocks. ((Count/Count))
board.cache_hierarchy.clusters.iptw_cache.tags.warmupTick            0                       # The tick when the warmup percentage was hit. (Tick)
board.cache_hierarchy.clusters.iptw_cache.tags.tagAccesses            0                       # Number of tag accesses (Count)
board.cache_hierarchy.clusters.iptw_cache.tags.dataAccesses            0                       # Number of data accesses (Count)
board.cache_hierarchy.clusters.iptw_cache.tags.power_state.pwrStateResidencyTicks::UNDEFINED 491493394004                       # Cumulative time (in ticks) in various power states (Tick)
board.cache_hierarchy.clusters.l1dcache.demandHits::processor.cores.core.data    102579754                       # number of demand (read+write) hits (Count)
board.cache_hierarchy.clusters.l1dcache.demandHits::total    102579754                       # number of demand (read+write) hits (Count)
board.cache_hierarchy.clusters.l1dcache.overallHits::processor.cores.core.data    102579754                       # number of overall hits (Count)
board.cache_hierarchy.clusters.l1dcache.overallHits::total    102579754                       # number of overall hits (Count)
board.cache_hierarchy.clusters.l1dcache.demandMisses::processor.cores.core.data     18968246                       # number of demand (read+write) misses (Count)
board.cache_hierarchy.clusters.l1dcache.demandMisses::total     18968246                       # number of demand (read+write) misses (Count)
board.cache_hierarchy.clusters.l1dcache.overallMisses::processor.cores.core.data     18968246                       # number of overall misses (Count)
board.cache_hierarchy.clusters.l1dcache.overallMisses::total     18968246                       # number of overall misses (Count)
board.cache_hierarchy.clusters.l1dcache.demandMissLatency::processor.cores.core.data 324243768071                       # number of demand (read+write) miss ticks (Tick)
board.cache_hierarchy.clusters.l1dcache.demandMissLatency::total 324243768071                       # number of demand (read+write) miss ticks (Tick)
board.cache_hierarchy.clusters.l1dcache.overallMissLatency::processor.cores.core.data 324243768071                       # number of overall miss ticks (Tick)
board.cache_hierarchy.clusters.l1dcache.overallMissLatency::total 324243768071                       # number of overall miss ticks (Tick)
board.cache_hierarchy.clusters.l1dcache.demandAccesses::processor.cores.core.data    121548000                       # number of demand (read+write) accesses (Count)
board.cache_hierarchy.clusters.l1dcache.demandAccesses::total    121548000                       # number of demand (read+write) accesses (Count)
board.cache_hierarchy.clusters.l1dcache.overallAccesses::processor.cores.core.data    121548000                       # number of overall (read+write) accesses (Count)
board.cache_hierarchy.clusters.l1dcache.overallAccesses::total    121548000                       # number of overall (read+write) accesses (Count)
board.cache_hierarchy.clusters.l1dcache.demandMissRate::processor.cores.core.data     0.156056                       # miss rate for demand accesses (Ratio)
board.cache_hierarchy.clusters.l1dcache.demandMissRate::total     0.156056                       # miss rate for demand accesses (Ratio)
board.cache_hierarchy.clusters.l1dcache.overallMissRate::processor.cores.core.data     0.156056                       # miss rate for overall accesses (Ratio)
board.cache_hierarchy.clusters.l1dcache.overallMissRate::total     0.156056                       # miss rate for overall accesses (Ratio)
board.cache_hierarchy.clusters.l1dcache.demandAvgMissLatency::processor.cores.core.data 17094.030100                       # average overall miss latency in ticks ((Tick/Count))
board.cache_hierarchy.clusters.l1dcache.demandAvgMissLatency::total 17094.030100                       # average overall miss latency in ticks ((Tick/Count))
board.cache_hierarchy.clusters.l1dcache.overallAvgMissLatency::processor.cores.core.data 17094.030100                       # average overall miss latency ((Tick/Count))
board.cache_hierarchy.clusters.l1dcache.overallAvgMissLatency::total 17094.030100                       # average overall miss latency ((Tick/Count))
board.cache_hierarchy.clusters.l1dcache.blockedCycles::no_mshrs       510080                       # number of cycles access was blocked (Cycle)
board.cache_hierarchy.clusters.l1dcache.blockedCycles::no_targets     45920444                       # number of cycles access was blocked (Cycle)
board.cache_hierarchy.clusters.l1dcache.blockedCauses::no_mshrs        60348                       # number of times access was blocked (Count)
board.cache_hierarchy.clusters.l1dcache.blockedCauses::no_targets       775893                       # number of times access was blocked (Count)
board.cache_hierarchy.clusters.l1dcache.avgBlocked::no_mshrs     8.452310                       # average number of cycles each access was blocked ((Cycle/Count))
board.cache_hierarchy.clusters.l1dcache.avgBlocked::no_targets    59.183991                       # average number of cycles each access was blocked ((Cycle/Count))
board.cache_hierarchy.clusters.l1dcache.writebacks::writebacks      3021146                       # number of writebacks (Count)
board.cache_hierarchy.clusters.l1dcache.writebacks::total      3021146                       # number of writebacks (Count)
board.cache_hierarchy.clusters.l1dcache.demandMshrHits::processor.cores.core.data     13738541                       # number of demand (read+write) MSHR hits (Count)
board.cache_hierarchy.clusters.l1dcache.demandMshrHits::total     13738541                       # number of demand (read+write) MSHR hits (Count)
board.cache_hierarchy.clusters.l1dcache.overallMshrHits::processor.cores.core.data     13738541                       # number of overall MSHR hits (Count)
board.cache_hierarchy.clusters.l1dcache.overallMshrHits::total     13738541                       # number of overall MSHR hits (Count)
board.cache_hierarchy.clusters.l1dcache.demandMshrMisses::processor.cores.core.data      5229705                       # number of demand (read+write) MSHR misses (Count)
board.cache_hierarchy.clusters.l1dcache.demandMshrMisses::total      5229705                       # number of demand (read+write) MSHR misses (Count)
board.cache_hierarchy.clusters.l1dcache.overallMshrMisses::processor.cores.core.data      5229705                       # number of overall MSHR misses (Count)
board.cache_hierarchy.clusters.l1dcache.overallMshrMisses::total      5229705                       # number of overall MSHR misses (Count)
board.cache_hierarchy.clusters.l1dcache.demandMshrMissLatency::processor.cores.core.data  79875167959                       # number of demand (read+write) MSHR miss ticks (Tick)
board.cache_hierarchy.clusters.l1dcache.demandMshrMissLatency::total  79875167959                       # number of demand (read+write) MSHR miss ticks (Tick)
board.cache_hierarchy.clusters.l1dcache.overallMshrMissLatency::processor.cores.core.data  79875167959                       # number of overall MSHR miss ticks (Tick)
board.cache_hierarchy.clusters.l1dcache.overallMshrMissLatency::total  79875167959                       # number of overall MSHR miss ticks (Tick)
board.cache_hierarchy.clusters.l1dcache.demandMshrMissRate::processor.cores.core.data     0.043026                       # mshr miss ratio for demand accesses (Ratio)
board.cache_hierarchy.clusters.l1dcache.demandMshrMissRate::total     0.043026                       # mshr miss ratio for demand accesses (Ratio)
board.cache_hierarchy.clusters.l1dcache.overallMshrMissRate::processor.cores.core.data     0.043026                       # mshr miss ratio for overall accesses (Ratio)
board.cache_hierarchy.clusters.l1dcache.overallMshrMissRate::total     0.043026                       # mshr miss ratio for overall accesses (Ratio)
board.cache_hierarchy.clusters.l1dcache.demandAvgMshrMissLatency::processor.cores.core.data 15273.360153                       # average overall mshr miss latency ((Tick/Count))
board.cache_hierarchy.clusters.l1dcache.demandAvgMshrMissLatency::total 15273.360153                       # average overall mshr miss latency ((Tick/Count))
board.cache_hierarchy.clusters.l1dcache.overallAvgMshrMissLatency::processor.cores.core.data 15273.360153                       # average overall mshr miss latency ((Tick/Count))
board.cache_hierarchy.clusters.l1dcache.overallAvgMshrMissLatency::total 15273.360153                       # average overall mshr miss latency ((Tick/Count))
board.cache_hierarchy.clusters.l1dcache.replacements      4856716                       # number of replacements (Count)
board.cache_hierarchy.clusters.l1dcache.LockedRMWReadReq.hits::processor.cores.core.data            2                       # number of LockedRMWReadReq hits (Count)
board.cache_hierarchy.clusters.l1dcache.LockedRMWReadReq.hits::total            2                       # number of LockedRMWReadReq hits (Count)
board.cache_hierarchy.clusters.l1dcache.LockedRMWReadReq.accesses::processor.cores.core.data            2                       # number of LockedRMWReadReq accesses(hits+misses) (Count)
board.cache_hierarchy.clusters.l1dcache.LockedRMWReadReq.accesses::total            2                       # number of LockedRMWReadReq accesses(hits+misses) (Count)
board.cache_hierarchy.clusters.l1dcache.LockedRMWReadReq.mshrMissLatency::processor.cores.core.data         4995                       # number of LockedRMWReadReq MSHR miss ticks (Tick)
board.cache_hierarchy.clusters.l1dcache.LockedRMWReadReq.mshrMissLatency::total         4995                       # number of LockedRMWReadReq MSHR miss ticks (Tick)
board.cache_hierarchy.clusters.l1dcache.LockedRMWReadReq.avgMshrMissLatency::processor.cores.core.data          inf                       # average LockedRMWReadReq mshr miss latency ((Tick/Count))
board.cache_hierarchy.clusters.l1dcache.LockedRMWReadReq.avgMshrMissLatency::total          inf                       # average LockedRMWReadReq mshr miss latency ((Tick/Count))
board.cache_hierarchy.clusters.l1dcache.LockedRMWWriteReq.hits::processor.cores.core.data            2                       # number of LockedRMWWriteReq hits (Count)
board.cache_hierarchy.clusters.l1dcache.LockedRMWWriteReq.hits::total            2                       # number of LockedRMWWriteReq hits (Count)
board.cache_hierarchy.clusters.l1dcache.LockedRMWWriteReq.accesses::processor.cores.core.data            2                       # number of LockedRMWWriteReq accesses(hits+misses) (Count)
board.cache_hierarchy.clusters.l1dcache.LockedRMWWriteReq.accesses::total            2                       # number of LockedRMWWriteReq accesses(hits+misses) (Count)
board.cache_hierarchy.clusters.l1dcache.ReadReq.hits::processor.cores.core.data     78115970                       # number of ReadReq hits (Count)
board.cache_hierarchy.clusters.l1dcache.ReadReq.hits::total     78115970                       # number of ReadReq hits (Count)
board.cache_hierarchy.clusters.l1dcache.ReadReq.misses::processor.cores.core.data     17968169                       # number of ReadReq misses (Count)
board.cache_hierarchy.clusters.l1dcache.ReadReq.misses::total     17968169                       # number of ReadReq misses (Count)
board.cache_hierarchy.clusters.l1dcache.ReadReq.missLatency::processor.cores.core.data 313044226083                       # number of ReadReq miss ticks (Tick)
board.cache_hierarchy.clusters.l1dcache.ReadReq.missLatency::total 313044226083                       # number of ReadReq miss ticks (Tick)
board.cache_hierarchy.clusters.l1dcache.ReadReq.accesses::processor.cores.core.data     96084139                       # number of ReadReq accesses(hits+misses) (Count)
board.cache_hierarchy.clusters.l1dcache.ReadReq.accesses::total     96084139                       # number of ReadReq accesses(hits+misses) (Count)
board.cache_hierarchy.clusters.l1dcache.ReadReq.missRate::processor.cores.core.data     0.187005                       # miss rate for ReadReq accesses (Ratio)
board.cache_hierarchy.clusters.l1dcache.ReadReq.missRate::total     0.187005                       # miss rate for ReadReq accesses (Ratio)
board.cache_hierarchy.clusters.l1dcache.ReadReq.avgMissLatency::processor.cores.core.data 17422.155039                       # average ReadReq miss latency ((Tick/Count))
board.cache_hierarchy.clusters.l1dcache.ReadReq.avgMissLatency::total 17422.155039                       # average ReadReq miss latency ((Tick/Count))
board.cache_hierarchy.clusters.l1dcache.ReadReq.mshrHits::processor.cores.core.data     13738439                       # number of ReadReq MSHR hits (Count)
board.cache_hierarchy.clusters.l1dcache.ReadReq.mshrHits::total     13738439                       # number of ReadReq MSHR hits (Count)
board.cache_hierarchy.clusters.l1dcache.ReadReq.mshrMisses::processor.cores.core.data      4229730                       # number of ReadReq MSHR misses (Count)
board.cache_hierarchy.clusters.l1dcache.ReadReq.mshrMisses::total      4229730                       # number of ReadReq MSHR misses (Count)
board.cache_hierarchy.clusters.l1dcache.ReadReq.mshrMissLatency::processor.cores.core.data  69009178743                       # number of ReadReq MSHR miss ticks (Tick)
board.cache_hierarchy.clusters.l1dcache.ReadReq.mshrMissLatency::total  69009178743                       # number of ReadReq MSHR miss ticks (Tick)
board.cache_hierarchy.clusters.l1dcache.ReadReq.mshrMissRate::processor.cores.core.data     0.044021                       # mshr miss rate for ReadReq accesses (Ratio)
board.cache_hierarchy.clusters.l1dcache.ReadReq.mshrMissRate::total     0.044021                       # mshr miss rate for ReadReq accesses (Ratio)
board.cache_hierarchy.clusters.l1dcache.ReadReq.avgMshrMissLatency::processor.cores.core.data 16315.268053                       # average ReadReq mshr miss latency ((Tick/Count))
board.cache_hierarchy.clusters.l1dcache.ReadReq.avgMshrMissLatency::total 16315.268053                       # average ReadReq mshr miss latency ((Tick/Count))
board.cache_hierarchy.clusters.l1dcache.WriteReq.hits::processor.cores.core.data     24463784                       # number of WriteReq hits (Count)
board.cache_hierarchy.clusters.l1dcache.WriteReq.hits::total     24463784                       # number of WriteReq hits (Count)
board.cache_hierarchy.clusters.l1dcache.WriteReq.misses::processor.cores.core.data      1000077                       # number of WriteReq misses (Count)
board.cache_hierarchy.clusters.l1dcache.WriteReq.misses::total      1000077                       # number of WriteReq misses (Count)
board.cache_hierarchy.clusters.l1dcache.WriteReq.missLatency::processor.cores.core.data  11199541988                       # number of WriteReq miss ticks (Tick)
board.cache_hierarchy.clusters.l1dcache.WriteReq.missLatency::total  11199541988                       # number of WriteReq miss ticks (Tick)
board.cache_hierarchy.clusters.l1dcache.WriteReq.accesses::processor.cores.core.data     25463861                       # number of WriteReq accesses(hits+misses) (Count)
board.cache_hierarchy.clusters.l1dcache.WriteReq.accesses::total     25463861                       # number of WriteReq accesses(hits+misses) (Count)
board.cache_hierarchy.clusters.l1dcache.WriteReq.missRate::processor.cores.core.data     0.039274                       # miss rate for WriteReq accesses (Ratio)
board.cache_hierarchy.clusters.l1dcache.WriteReq.missRate::total     0.039274                       # miss rate for WriteReq accesses (Ratio)
board.cache_hierarchy.clusters.l1dcache.WriteReq.avgMissLatency::processor.cores.core.data 11198.679690                       # average WriteReq miss latency ((Tick/Count))
board.cache_hierarchy.clusters.l1dcache.WriteReq.avgMissLatency::total 11198.679690                       # average WriteReq miss latency ((Tick/Count))
board.cache_hierarchy.clusters.l1dcache.WriteReq.mshrHits::processor.cores.core.data          102                       # number of WriteReq MSHR hits (Count)
board.cache_hierarchy.clusters.l1dcache.WriteReq.mshrHits::total          102                       # number of WriteReq MSHR hits (Count)
board.cache_hierarchy.clusters.l1dcache.WriteReq.mshrMisses::processor.cores.core.data       999975                       # number of WriteReq MSHR misses (Count)
board.cache_hierarchy.clusters.l1dcache.WriteReq.mshrMisses::total       999975                       # number of WriteReq MSHR misses (Count)
board.cache_hierarchy.clusters.l1dcache.WriteReq.mshrMissLatency::processor.cores.core.data  10865989216                       # number of WriteReq MSHR miss ticks (Tick)
board.cache_hierarchy.clusters.l1dcache.WriteReq.mshrMissLatency::total  10865989216                       # number of WriteReq MSHR miss ticks (Tick)
board.cache_hierarchy.clusters.l1dcache.WriteReq.mshrMissRate::processor.cores.core.data     0.039270                       # mshr miss rate for WriteReq accesses (Ratio)
board.cache_hierarchy.clusters.l1dcache.WriteReq.mshrMissRate::total     0.039270                       # mshr miss rate for WriteReq accesses (Ratio)
board.cache_hierarchy.clusters.l1dcache.WriteReq.avgMshrMissLatency::processor.cores.core.data 10866.260873                       # average WriteReq mshr miss latency ((Tick/Count))
board.cache_hierarchy.clusters.l1dcache.WriteReq.avgMshrMissLatency::total 10866.260873                       # average WriteReq mshr miss latency ((Tick/Count))
board.cache_hierarchy.clusters.l1dcache.power_state.pwrStateResidencyTicks::UNDEFINED 491493394004                       # Cumulative time (in ticks) in various power states (Tick)
board.cache_hierarchy.clusters.l1dcache.tags.tagsInUse   511.848398                       # Average ticks per tags in use ((Tick/Count))
board.cache_hierarchy.clusters.l1dcache.tags.totalRefs    107991106                       # Total number of references to valid blocks. (Count)
board.cache_hierarchy.clusters.l1dcache.tags.sampledRefs      4857228                       # Sample count of references to valid blocks. (Count)
board.cache_hierarchy.clusters.l1dcache.tags.avgRefs    22.233073                       # Average number of references to valid blocks. ((Count/Count))
board.cache_hierarchy.clusters.l1dcache.tags.warmupTick 441493535862                       # The tick when the warmup percentage was hit. (Tick)
board.cache_hierarchy.clusters.l1dcache.tags.occupancies::processor.cores.core.data   511.848398                       # Average occupied blocks per tick, per requestor ((Count/Tick))
board.cache_hierarchy.clusters.l1dcache.tags.avgOccs::processor.cores.core.data     0.999704                       # Average percentage of cache occupancy ((Ratio/Tick))
board.cache_hierarchy.clusters.l1dcache.tags.avgOccs::total     0.999704                       # Average percentage of cache occupancy ((Ratio/Tick))
board.cache_hierarchy.clusters.l1dcache.tags.occupanciesTaskId::1024          512                       # Occupied blocks per task id (Count)
board.cache_hierarchy.clusters.l1dcache.tags.ageTaskId_1024::0          472                       # Occupied blocks per task id, per block age (Count)
board.cache_hierarchy.clusters.l1dcache.tags.ageTaskId_1024::3           40                       # Occupied blocks per task id, per block age (Count)
board.cache_hierarchy.clusters.l1dcache.tags.ratioOccsTaskId::1024            1                       # Ratio of occupied blocks and all blocks, per task id (Ratio)
board.cache_hierarchy.clusters.l1dcache.tags.tagAccesses    977241260                       # Number of tag accesses (Count)
board.cache_hierarchy.clusters.l1dcache.tags.dataAccesses    977241260                       # Number of data accesses (Count)
board.cache_hierarchy.clusters.l1dcache.tags.power_state.pwrStateResidencyTicks::UNDEFINED 491493394004                       # Cumulative time (in ticks) in various power states (Tick)
board.cache_hierarchy.clusters.l1icache.demandHits::processor.cores.core.inst     33334069                       # number of demand (read+write) hits (Count)
board.cache_hierarchy.clusters.l1icache.demandHits::total     33334069                       # number of demand (read+write) hits (Count)
board.cache_hierarchy.clusters.l1icache.overallHits::processor.cores.core.inst     33334069                       # number of overall hits (Count)
board.cache_hierarchy.clusters.l1icache.overallHits::total     33334069                       # number of overall hits (Count)
board.cache_hierarchy.clusters.l1icache.demandMisses::processor.cores.core.inst          675                       # number of demand (read+write) misses (Count)
board.cache_hierarchy.clusters.l1icache.demandMisses::total          675                       # number of demand (read+write) misses (Count)
board.cache_hierarchy.clusters.l1icache.overallMisses::processor.cores.core.inst          675                       # number of overall misses (Count)
board.cache_hierarchy.clusters.l1icache.overallMisses::total          675                       # number of overall misses (Count)
board.cache_hierarchy.clusters.l1icache.demandMissLatency::processor.cores.core.inst     38451836                       # number of demand (read+write) miss ticks (Tick)
board.cache_hierarchy.clusters.l1icache.demandMissLatency::total     38451836                       # number of demand (read+write) miss ticks (Tick)
board.cache_hierarchy.clusters.l1icache.overallMissLatency::processor.cores.core.inst     38451836                       # number of overall miss ticks (Tick)
board.cache_hierarchy.clusters.l1icache.overallMissLatency::total     38451836                       # number of overall miss ticks (Tick)
board.cache_hierarchy.clusters.l1icache.demandAccesses::processor.cores.core.inst     33334744                       # number of demand (read+write) accesses (Count)
board.cache_hierarchy.clusters.l1icache.demandAccesses::total     33334744                       # number of demand (read+write) accesses (Count)
board.cache_hierarchy.clusters.l1icache.overallAccesses::processor.cores.core.inst     33334744                       # number of overall (read+write) accesses (Count)
board.cache_hierarchy.clusters.l1icache.overallAccesses::total     33334744                       # number of overall (read+write) accesses (Count)
board.cache_hierarchy.clusters.l1icache.demandMissRate::processor.cores.core.inst     0.000020                       # miss rate for demand accesses (Ratio)
board.cache_hierarchy.clusters.l1icache.demandMissRate::total     0.000020                       # miss rate for demand accesses (Ratio)
board.cache_hierarchy.clusters.l1icache.overallMissRate::processor.cores.core.inst     0.000020                       # miss rate for overall accesses (Ratio)
board.cache_hierarchy.clusters.l1icache.overallMissRate::total     0.000020                       # miss rate for overall accesses (Ratio)
board.cache_hierarchy.clusters.l1icache.demandAvgMissLatency::processor.cores.core.inst 56965.682963                       # average overall miss latency in ticks ((Tick/Count))
board.cache_hierarchy.clusters.l1icache.demandAvgMissLatency::total 56965.682963                       # average overall miss latency in ticks ((Tick/Count))
board.cache_hierarchy.clusters.l1icache.overallAvgMissLatency::processor.cores.core.inst 56965.682963                       # average overall miss latency ((Tick/Count))
board.cache_hierarchy.clusters.l1icache.overallAvgMissLatency::total 56965.682963                       # average overall miss latency ((Tick/Count))
board.cache_hierarchy.clusters.l1icache.blockedCycles::no_mshrs          513                       # number of cycles access was blocked (Cycle)
board.cache_hierarchy.clusters.l1icache.blockedCycles::no_targets        17974                       # number of cycles access was blocked (Cycle)
board.cache_hierarchy.clusters.l1icache.blockedCauses::no_mshrs            4                       # number of times access was blocked (Count)
board.cache_hierarchy.clusters.l1icache.blockedCauses::no_targets          121                       # number of times access was blocked (Count)
board.cache_hierarchy.clusters.l1icache.avgBlocked::no_mshrs   128.250000                       # average number of cycles each access was blocked ((Cycle/Count))
board.cache_hierarchy.clusters.l1icache.avgBlocked::no_targets   148.545455                       # average number of cycles each access was blocked ((Cycle/Count))
board.cache_hierarchy.clusters.l1icache.demandMshrHits::processor.cores.core.inst          121                       # number of demand (read+write) MSHR hits (Count)
board.cache_hierarchy.clusters.l1icache.demandMshrHits::total          121                       # number of demand (read+write) MSHR hits (Count)
board.cache_hierarchy.clusters.l1icache.overallMshrHits::processor.cores.core.inst          121                       # number of overall MSHR hits (Count)
board.cache_hierarchy.clusters.l1icache.overallMshrHits::total          121                       # number of overall MSHR hits (Count)
board.cache_hierarchy.clusters.l1icache.demandMshrMisses::processor.cores.core.inst          554                       # number of demand (read+write) MSHR misses (Count)
board.cache_hierarchy.clusters.l1icache.demandMshrMisses::total          554                       # number of demand (read+write) MSHR misses (Count)
board.cache_hierarchy.clusters.l1icache.overallMshrMisses::processor.cores.core.inst          554                       # number of overall MSHR misses (Count)
board.cache_hierarchy.clusters.l1icache.overallMshrMisses::total          554                       # number of overall MSHR misses (Count)
board.cache_hierarchy.clusters.l1icache.demandMshrMissLatency::processor.cores.core.inst     32241387                       # number of demand (read+write) MSHR miss ticks (Tick)
board.cache_hierarchy.clusters.l1icache.demandMshrMissLatency::total     32241387                       # number of demand (read+write) MSHR miss ticks (Tick)
board.cache_hierarchy.clusters.l1icache.overallMshrMissLatency::processor.cores.core.inst     32241387                       # number of overall MSHR miss ticks (Tick)
board.cache_hierarchy.clusters.l1icache.overallMshrMissLatency::total     32241387                       # number of overall MSHR miss ticks (Tick)
board.cache_hierarchy.clusters.l1icache.demandMshrMissRate::processor.cores.core.inst     0.000017                       # mshr miss ratio for demand accesses (Ratio)
board.cache_hierarchy.clusters.l1icache.demandMshrMissRate::total     0.000017                       # mshr miss ratio for demand accesses (Ratio)
board.cache_hierarchy.clusters.l1icache.overallMshrMissRate::processor.cores.core.inst     0.000017                       # mshr miss ratio for overall accesses (Ratio)
board.cache_hierarchy.clusters.l1icache.overallMshrMissRate::total     0.000017                       # mshr miss ratio for overall accesses (Ratio)
board.cache_hierarchy.clusters.l1icache.demandAvgMshrMissLatency::processor.cores.core.inst 58197.449458                       # average overall mshr miss latency ((Tick/Count))
board.cache_hierarchy.clusters.l1icache.demandAvgMshrMissLatency::total 58197.449458                       # average overall mshr miss latency ((Tick/Count))
board.cache_hierarchy.clusters.l1icache.overallAvgMshrMissLatency::processor.cores.core.inst 58197.449458                       # average overall mshr miss latency ((Tick/Count))
board.cache_hierarchy.clusters.l1icache.overallAvgMshrMissLatency::total 58197.449458                       # average overall mshr miss latency ((Tick/Count))
board.cache_hierarchy.clusters.l1icache.replacements           86                       # number of replacements (Count)
board.cache_hierarchy.clusters.l1icache.ReadReq.hits::processor.cores.core.inst     33334069                       # number of ReadReq hits (Count)
board.cache_hierarchy.clusters.l1icache.ReadReq.hits::total     33334069                       # number of ReadReq hits (Count)
board.cache_hierarchy.clusters.l1icache.ReadReq.misses::processor.cores.core.inst          675                       # number of ReadReq misses (Count)
board.cache_hierarchy.clusters.l1icache.ReadReq.misses::total          675                       # number of ReadReq misses (Count)
board.cache_hierarchy.clusters.l1icache.ReadReq.missLatency::processor.cores.core.inst     38451836                       # number of ReadReq miss ticks (Tick)
board.cache_hierarchy.clusters.l1icache.ReadReq.missLatency::total     38451836                       # number of ReadReq miss ticks (Tick)
board.cache_hierarchy.clusters.l1icache.ReadReq.accesses::processor.cores.core.inst     33334744                       # number of ReadReq accesses(hits+misses) (Count)
board.cache_hierarchy.clusters.l1icache.ReadReq.accesses::total     33334744                       # number of ReadReq accesses(hits+misses) (Count)
board.cache_hierarchy.clusters.l1icache.ReadReq.missRate::processor.cores.core.inst     0.000020                       # miss rate for ReadReq accesses (Ratio)
board.cache_hierarchy.clusters.l1icache.ReadReq.missRate::total     0.000020                       # miss rate for ReadReq accesses (Ratio)
board.cache_hierarchy.clusters.l1icache.ReadReq.avgMissLatency::processor.cores.core.inst 56965.682963                       # average ReadReq miss latency ((Tick/Count))
board.cache_hierarchy.clusters.l1icache.ReadReq.avgMissLatency::total 56965.682963                       # average ReadReq miss latency ((Tick/Count))
board.cache_hierarchy.clusters.l1icache.ReadReq.mshrHits::processor.cores.core.inst          121                       # number of ReadReq MSHR hits (Count)
board.cache_hierarchy.clusters.l1icache.ReadReq.mshrHits::total          121                       # number of ReadReq MSHR hits (Count)
board.cache_hierarchy.clusters.l1icache.ReadReq.mshrMisses::processor.cores.core.inst          554                       # number of ReadReq MSHR misses (Count)
board.cache_hierarchy.clusters.l1icache.ReadReq.mshrMisses::total          554                       # number of ReadReq MSHR misses (Count)
board.cache_hierarchy.clusters.l1icache.ReadReq.mshrMissLatency::processor.cores.core.inst     32241387                       # number of ReadReq MSHR miss ticks (Tick)
board.cache_hierarchy.clusters.l1icache.ReadReq.mshrMissLatency::total     32241387                       # number of ReadReq MSHR miss ticks (Tick)
board.cache_hierarchy.clusters.l1icache.ReadReq.mshrMissRate::processor.cores.core.inst     0.000017                       # mshr miss rate for ReadReq accesses (Ratio)
board.cache_hierarchy.clusters.l1icache.ReadReq.mshrMissRate::total     0.000017                       # mshr miss rate for ReadReq accesses (Ratio)
board.cache_hierarchy.clusters.l1icache.ReadReq.avgMshrMissLatency::processor.cores.core.inst 58197.449458                       # average ReadReq mshr miss latency ((Tick/Count))
board.cache_hierarchy.clusters.l1icache.ReadReq.avgMshrMissLatency::total 58197.449458                       # average ReadReq mshr miss latency ((Tick/Count))
board.cache_hierarchy.clusters.l1icache.power_state.pwrStateResidencyTicks::UNDEFINED 491493394004                       # Cumulative time (in ticks) in various power states (Tick)
board.cache_hierarchy.clusters.l1icache.tags.tagsInUse   456.524551                       # Average ticks per tags in use ((Tick/Count))
board.cache_hierarchy.clusters.l1icache.tags.totalRefs     33334623                       # Total number of references to valid blocks. (Count)
board.cache_hierarchy.clusters.l1icache.tags.sampledRefs          554                       # Sample count of references to valid blocks. (Count)
board.cache_hierarchy.clusters.l1icache.tags.avgRefs 60170.799639                       # Average number of references to valid blocks. ((Count/Count))
board.cache_hierarchy.clusters.l1icache.tags.warmupTick 441493468263                       # The tick when the warmup percentage was hit. (Tick)
board.cache_hierarchy.clusters.l1icache.tags.occupancies::processor.cores.core.inst   456.524551                       # Average occupied blocks per tick, per requestor ((Count/Tick))
board.cache_hierarchy.clusters.l1icache.tags.avgOccs::processor.cores.core.inst     0.891650                       # Average percentage of cache occupancy ((Ratio/Tick))
board.cache_hierarchy.clusters.l1icache.tags.avgOccs::total     0.891650                       # Average percentage of cache occupancy ((Ratio/Tick))
board.cache_hierarchy.clusters.l1icache.tags.occupanciesTaskId::1024          468                       # Occupied blocks per task id (Count)
board.cache_hierarchy.clusters.l1icache.tags.ageTaskId_1024::3            1                       # Occupied blocks per task id, per block age (Count)
board.cache_hierarchy.clusters.l1icache.tags.ageTaskId_1024::4          467                       # Occupied blocks per task id, per block age (Count)
board.cache_hierarchy.clusters.l1icache.tags.ratioOccsTaskId::1024     0.914062                       # Ratio of occupied blocks and all blocks, per task id (Ratio)
board.cache_hierarchy.clusters.l1icache.tags.tagAccesses    266678506                       # Number of tag accesses (Count)
board.cache_hierarchy.clusters.l1icache.tags.dataAccesses    266678506                       # Number of data accesses (Count)
board.cache_hierarchy.clusters.l1icache.tags.power_state.pwrStateResidencyTicks::UNDEFINED 491493394004                       # Cumulative time (in ticks) in various power states (Tick)
board.cache_hierarchy.clusters.l2_bus.transDist::ReadResp      4230257                       # Transaction distribution (Count)
board.cache_hierarchy.clusters.l2_bus.transDist::WritebackDirty      5191914                       # Transaction distribution (Count)
board.cache_hierarchy.clusters.l2_bus.transDist::CleanEvict      2569743                       # Transaction distribution (Count)
board.cache_hierarchy.clusters.l2_bus.transDist::UpgradeReq       372476                       # Transaction distribution (Count)
board.cache_hierarchy.clusters.l2_bus.transDist::UpgradeResp       372476                       # Transaction distribution (Count)
board.cache_hierarchy.clusters.l2_bus.transDist::ReadExReq       627525                       # Transaction distribution (Count)
board.cache_hierarchy.clusters.l2_bus.transDist::ReadExResp       627525                       # Transaction distribution (Count)
board.cache_hierarchy.clusters.l2_bus.transDist::ReadCleanReq          554                       # Transaction distribution (Count)
board.cache_hierarchy.clusters.l2_bus.transDist::ReadSharedReq      4229704                       # Transaction distribution (Count)
board.cache_hierarchy.clusters.l2_bus.pktCount_board.cache_hierarchy.clusters.l1dcache.mem_side_port::board.cache_hierarchy.clusters.l2cache.cpu_side_port     15316125                       # Packet count per connected requestor and responder (Count)
board.cache_hierarchy.clusters.l2_bus.pktCount_board.cache_hierarchy.clusters.l1icache.mem_side_port::board.cache_hierarchy.clusters.l2cache.cpu_side_port         1194                       # Packet count per connected requestor and responder (Count)
board.cache_hierarchy.clusters.l2_bus.pktCount::total     15317319                       # Packet count per connected requestor and responder (Count)
board.cache_hierarchy.clusters.l2_bus.pktSize_board.cache_hierarchy.clusters.l1dcache.mem_side_port::board.cache_hierarchy.clusters.l2cache.cpu_side_port    504215936                       # Cumulative packet size per connected requestor and responder (Byte)
board.cache_hierarchy.clusters.l2_bus.pktSize_board.cache_hierarchy.clusters.l1icache.mem_side_port::board.cache_hierarchy.clusters.l2cache.cpu_side_port        35456                       # Cumulative packet size per connected requestor and responder (Byte)
board.cache_hierarchy.clusters.l2_bus.pktSize::total    504251392                       # Cumulative packet size per connected requestor and responder (Byte)
board.cache_hierarchy.clusters.l2_bus.snoops      2904855                       # Total snoops (Count)
board.cache_hierarchy.clusters.l2_bus.snoopTraffic    138929152                       # Total snoop traffic (Byte)
board.cache_hierarchy.clusters.l2_bus.snoopFanout::samples      8135217                       # Request fanout histogram (Count)
board.cache_hierarchy.clusters.l2_bus.snoopFanout::mean     0.000100                       # Request fanout histogram (Count)
board.cache_hierarchy.clusters.l2_bus.snoopFanout::stdev     0.010015                       # Request fanout histogram (Count)
board.cache_hierarchy.clusters.l2_bus.snoopFanout::underflows            0      0.00%      0.00% # Request fanout histogram (Count)
board.cache_hierarchy.clusters.l2_bus.snoopFanout::0      8134401     99.99%     99.99% # Request fanout histogram (Count)
board.cache_hierarchy.clusters.l2_bus.snoopFanout::1          816      0.01%    100.00% # Request fanout histogram (Count)
board.cache_hierarchy.clusters.l2_bus.snoopFanout::2            0      0.00%    100.00% # Request fanout histogram (Count)
board.cache_hierarchy.clusters.l2_bus.snoopFanout::3            0      0.00%    100.00% # Request fanout histogram (Count)
board.cache_hierarchy.clusters.l2_bus.snoopFanout::4            0      0.00%    100.00% # Request fanout histogram (Count)
board.cache_hierarchy.clusters.l2_bus.snoopFanout::overflows            0      0.00%    100.00% # Request fanout histogram (Count)
board.cache_hierarchy.clusters.l2_bus.snoopFanout::min_value            0                       # Request fanout histogram (Count)
board.cache_hierarchy.clusters.l2_bus.snoopFanout::max_value            1                       # Request fanout histogram (Count)
board.cache_hierarchy.clusters.l2_bus.snoopFanout::total      8135217                       # Request fanout histogram (Count)
board.cache_hierarchy.clusters.l2_bus.power_state.pwrStateResidencyTicks::UNDEFINED 491493394004                       # Cumulative time (in ticks) in various power states (Tick)
board.cache_hierarchy.clusters.l2_bus.reqLayer0.occupancy   5371177377                       # Layer occupancy (ticks) (Tick)
board.cache_hierarchy.clusters.l2_bus.reqLayer0.utilization          0.1                       # Layer utilization (Ratio)
board.cache_hierarchy.clusters.l2_bus.respLayer0.occupancy   4976405280                       # Layer occupancy (ticks) (Tick)
board.cache_hierarchy.clusters.l2_bus.respLayer0.utilization          0.1                       # Layer utilization (Ratio)
board.cache_hierarchy.clusters.l2_bus.respLayer1.occupancy       554442                       # Layer occupancy (ticks) (Tick)
board.cache_hierarchy.clusters.l2_bus.respLayer1.utilization          0.0                       # Layer utilization (Ratio)
board.cache_hierarchy.clusters.l2_bus.snoop_filter.totRequests     10087301                       # Total number of requests made to the snoop filter. (Count)
board.cache_hierarchy.clusters.l2_bus.snoop_filter.hitSingleRequests      5229436                       # Number of requests hitting in the snoop filter with a single holder of the requested data. (Count)
board.cache_hierarchy.clusters.l2_bus.snoop_filter.hitMultiRequests            0                       # Number of requests hitting in the snoop filter with multiple (>1) holders of the requested data. (Count)
board.cache_hierarchy.clusters.l2_bus.snoop_filter.totSnoops          816                       # Total number of snoops made to the snoop filter. (Count)
board.cache_hierarchy.clusters.l2_bus.snoop_filter.hitSingleSnoops          816                       # Number of snoops hitting in the snoop filter with a single holder of the requested data. (Count)
board.cache_hierarchy.clusters.l2_bus.snoop_filter.hitMultiSnoops            0                       # Number of snoops hitting in the snoop filter with multiple (>1) holders of the requested data. (Count)
board.cache_hierarchy.clusters.l2cache.demandHits::processor.cores.core.data      1936756                       # number of demand (read+write) hits (Count)
board.cache_hierarchy.clusters.l2cache.demandHits::total      1936756                       # number of demand (read+write) hits (Count)
board.cache_hierarchy.clusters.l2cache.overallHits::processor.cores.core.data      1936756                       # number of overall hits (Count)
board.cache_hierarchy.clusters.l2cache.overallHits::total      1936756                       # number of overall hits (Count)
board.cache_hierarchy.clusters.l2cache.demandMisses::processor.cores.core.inst          554                       # number of demand (read+write) misses (Count)
board.cache_hierarchy.clusters.l2cache.demandMisses::processor.cores.core.data      2920473                       # number of demand (read+write) misses (Count)
board.cache_hierarchy.clusters.l2cache.demandMisses::total      2921027                       # number of demand (read+write) misses (Count)
board.cache_hierarchy.clusters.l2cache.overallMisses::processor.cores.core.inst          554                       # number of overall misses (Count)
board.cache_hierarchy.clusters.l2cache.overallMisses::processor.cores.core.data      2920473                       # number of overall misses (Count)
board.cache_hierarchy.clusters.l2cache.overallMisses::total      2921027                       # number of overall misses (Count)
board.cache_hierarchy.clusters.l2cache.demandMissLatency::processor.cores.core.inst     31860441                       # number of demand (read+write) miss ticks (Tick)
board.cache_hierarchy.clusters.l2cache.demandMissLatency::processor.cores.core.data  70864822214                       # number of demand (read+write) miss ticks (Tick)
board.cache_hierarchy.clusters.l2cache.demandMissLatency::total  70896682655                       # number of demand (read+write) miss ticks (Tick)
board.cache_hierarchy.clusters.l2cache.overallMissLatency::processor.cores.core.inst     31860441                       # number of overall miss ticks (Tick)
board.cache_hierarchy.clusters.l2cache.overallMissLatency::processor.cores.core.data  70864822214                       # number of overall miss ticks (Tick)
board.cache_hierarchy.clusters.l2cache.overallMissLatency::total  70896682655                       # number of overall miss ticks (Tick)
board.cache_hierarchy.clusters.l2cache.demandAccesses::processor.cores.core.inst          554                       # number of demand (read+write) accesses (Count)
board.cache_hierarchy.clusters.l2cache.demandAccesses::processor.cores.core.data      4857229                       # number of demand (read+write) accesses (Count)
board.cache_hierarchy.clusters.l2cache.demandAccesses::total      4857783                       # number of demand (read+write) accesses (Count)
board.cache_hierarchy.clusters.l2cache.overallAccesses::processor.cores.core.inst          554                       # number of overall (read+write) accesses (Count)
board.cache_hierarchy.clusters.l2cache.overallAccesses::processor.cores.core.data      4857229                       # number of overall (read+write) accesses (Count)
board.cache_hierarchy.clusters.l2cache.overallAccesses::total      4857783                       # number of overall (read+write) accesses (Count)
board.cache_hierarchy.clusters.l2cache.demandMissRate::processor.cores.core.inst            1                       # miss rate for demand accesses (Ratio)
board.cache_hierarchy.clusters.l2cache.demandMissRate::processor.cores.core.data     0.601263                       # miss rate for demand accesses (Ratio)
board.cache_hierarchy.clusters.l2cache.demandMissRate::total     0.601309                       # miss rate for demand accesses (Ratio)
board.cache_hierarchy.clusters.l2cache.overallMissRate::processor.cores.core.inst            1                       # miss rate for overall accesses (Ratio)
board.cache_hierarchy.clusters.l2cache.overallMissRate::processor.cores.core.data     0.601263                       # miss rate for overall accesses (Ratio)
board.cache_hierarchy.clusters.l2cache.overallMissRate::total     0.601309                       # miss rate for overall accesses (Ratio)
board.cache_hierarchy.clusters.l2cache.demandAvgMissLatency::processor.cores.core.inst 57509.821300                       # average overall miss latency in ticks ((Tick/Count))
board.cache_hierarchy.clusters.l2cache.demandAvgMissLatency::processor.cores.core.data 24264.844158                       # average overall miss latency in ticks ((Tick/Count))
board.cache_hierarchy.clusters.l2cache.demandAvgMissLatency::total 24271.149378                       # average overall miss latency in ticks ((Tick/Count))
board.cache_hierarchy.clusters.l2cache.overallAvgMissLatency::processor.cores.core.inst 57509.821300                       # average overall miss latency ((Tick/Count))
board.cache_hierarchy.clusters.l2cache.overallAvgMissLatency::processor.cores.core.data 24264.844158                       # average overall miss latency ((Tick/Count))
board.cache_hierarchy.clusters.l2cache.overallAvgMissLatency::total 24271.149378                       # average overall miss latency ((Tick/Count))
board.cache_hierarchy.clusters.l2cache.blockedCycles::no_mshrs            0                       # number of cycles access was blocked (Cycle)
board.cache_hierarchy.clusters.l2cache.blockedCycles::no_targets            0                       # number of cycles access was blocked (Cycle)
board.cache_hierarchy.clusters.l2cache.blockedCauses::no_mshrs            0                       # number of times access was blocked (Count)
board.cache_hierarchy.clusters.l2cache.blockedCauses::no_targets            0                       # number of times access was blocked (Count)
board.cache_hierarchy.clusters.l2cache.avgBlocked::no_mshrs          nan                       # average number of cycles each access was blocked ((Cycle/Count))
board.cache_hierarchy.clusters.l2cache.avgBlocked::no_targets          nan                       # average number of cycles each access was blocked ((Cycle/Count))
board.cache_hierarchy.clusters.l2cache.writebacks::writebacks      2170768                       # number of writebacks (Count)
board.cache_hierarchy.clusters.l2cache.writebacks::total      2170768                       # number of writebacks (Count)
board.cache_hierarchy.clusters.l2cache.demandMshrMisses::processor.cores.core.inst          554                       # number of demand (read+write) MSHR misses (Count)
board.cache_hierarchy.clusters.l2cache.demandMshrMisses::processor.cores.core.data      2920473                       # number of demand (read+write) MSHR misses (Count)
board.cache_hierarchy.clusters.l2cache.demandMshrMisses::total      2921027                       # number of demand (read+write) MSHR misses (Count)
board.cache_hierarchy.clusters.l2cache.overallMshrMisses::processor.cores.core.inst          554                       # number of overall MSHR misses (Count)
board.cache_hierarchy.clusters.l2cache.overallMshrMisses::processor.cores.core.data      2920473                       # number of overall MSHR misses (Count)
board.cache_hierarchy.clusters.l2cache.overallMshrMisses::total      2921027                       # number of overall MSHR misses (Count)
board.cache_hierarchy.clusters.l2cache.demandMshrMissLatency::processor.cores.core.inst     31306995                       # number of demand (read+write) MSHR miss ticks (Tick)
board.cache_hierarchy.clusters.l2cache.demandMshrMissLatency::processor.cores.core.data  67947270686                       # number of demand (read+write) MSHR miss ticks (Tick)
board.cache_hierarchy.clusters.l2cache.demandMshrMissLatency::total  67978577681                       # number of demand (read+write) MSHR miss ticks (Tick)
board.cache_hierarchy.clusters.l2cache.overallMshrMissLatency::processor.cores.core.inst     31306995                       # number of overall MSHR miss ticks (Tick)
board.cache_hierarchy.clusters.l2cache.overallMshrMissLatency::processor.cores.core.data  67947270686                       # number of overall MSHR miss ticks (Tick)
board.cache_hierarchy.clusters.l2cache.overallMshrMissLatency::total  67978577681                       # number of overall MSHR miss ticks (Tick)
board.cache_hierarchy.clusters.l2cache.demandMshrMissRate::processor.cores.core.inst            1                       # mshr miss ratio for demand accesses (Ratio)
board.cache_hierarchy.clusters.l2cache.demandMshrMissRate::processor.cores.core.data     0.601263                       # mshr miss ratio for demand accesses (Ratio)
board.cache_hierarchy.clusters.l2cache.demandMshrMissRate::total     0.601309                       # mshr miss ratio for demand accesses (Ratio)
board.cache_hierarchy.clusters.l2cache.overallMshrMissRate::processor.cores.core.inst            1                       # mshr miss ratio for overall accesses (Ratio)
board.cache_hierarchy.clusters.l2cache.overallMshrMissRate::processor.cores.core.data     0.601263                       # mshr miss ratio for overall accesses (Ratio)
board.cache_hierarchy.clusters.l2cache.overallMshrMissRate::total     0.601309                       # mshr miss ratio for overall accesses (Ratio)
board.cache_hierarchy.clusters.l2cache.demandAvgMshrMissLatency::processor.cores.core.inst 56510.821300                       # average overall mshr miss latency ((Tick/Count))
board.cache_hierarchy.clusters.l2cache.demandAvgMshrMissLatency::processor.cores.core.data 23265.844501                       # average overall mshr miss latency ((Tick/Count))
board.cache_hierarchy.clusters.l2cache.demandAvgMshrMissLatency::total 23272.149720                       # average overall mshr miss latency ((Tick/Count))
board.cache_hierarchy.clusters.l2cache.overallAvgMshrMissLatency::processor.cores.core.inst 56510.821300                       # average overall mshr miss latency ((Tick/Count))
board.cache_hierarchy.clusters.l2cache.overallAvgMshrMissLatency::processor.cores.core.data 23265.844501                       # average overall mshr miss latency ((Tick/Count))
board.cache_hierarchy.clusters.l2cache.overallAvgMshrMissLatency::total 23272.149720                       # average overall mshr miss latency ((Tick/Count))
board.cache_hierarchy.clusters.l2cache.replacements      2904855                       # number of replacements (Count)
board.cache_hierarchy.clusters.l2cache.CleanEvict.mshrMisses::writebacks           95                       # number of CleanEvict MSHR misses (Count)
board.cache_hierarchy.clusters.l2cache.CleanEvict.mshrMisses::total           95                       # number of CleanEvict MSHR misses (Count)
board.cache_hierarchy.clusters.l2cache.CleanEvict.mshrMissRate::writebacks          inf                       # mshr miss rate for CleanEvict accesses (Ratio)
board.cache_hierarchy.clusters.l2cache.CleanEvict.mshrMissRate::total          inf                       # mshr miss rate for CleanEvict accesses (Ratio)
board.cache_hierarchy.clusters.l2cache.ReadCleanReq.misses::processor.cores.core.inst          554                       # number of ReadCleanReq misses (Count)
board.cache_hierarchy.clusters.l2cache.ReadCleanReq.misses::total          554                       # number of ReadCleanReq misses (Count)
board.cache_hierarchy.clusters.l2cache.ReadCleanReq.missLatency::processor.cores.core.inst     31860441                       # number of ReadCleanReq miss ticks (Tick)
board.cache_hierarchy.clusters.l2cache.ReadCleanReq.missLatency::total     31860441                       # number of ReadCleanReq miss ticks (Tick)
board.cache_hierarchy.clusters.l2cache.ReadCleanReq.accesses::processor.cores.core.inst          554                       # number of ReadCleanReq accesses(hits+misses) (Count)
board.cache_hierarchy.clusters.l2cache.ReadCleanReq.accesses::total          554                       # number of ReadCleanReq accesses(hits+misses) (Count)
board.cache_hierarchy.clusters.l2cache.ReadCleanReq.missRate::processor.cores.core.inst            1                       # miss rate for ReadCleanReq accesses (Ratio)
board.cache_hierarchy.clusters.l2cache.ReadCleanReq.missRate::total            1                       # miss rate for ReadCleanReq accesses (Ratio)
board.cache_hierarchy.clusters.l2cache.ReadCleanReq.avgMissLatency::processor.cores.core.inst 57509.821300                       # average ReadCleanReq miss latency ((Tick/Count))
board.cache_hierarchy.clusters.l2cache.ReadCleanReq.avgMissLatency::total 57509.821300                       # average ReadCleanReq miss latency ((Tick/Count))
board.cache_hierarchy.clusters.l2cache.ReadCleanReq.mshrMisses::processor.cores.core.inst          554                       # number of ReadCleanReq MSHR misses (Count)
board.cache_hierarchy.clusters.l2cache.ReadCleanReq.mshrMisses::total          554                       # number of ReadCleanReq MSHR misses (Count)
board.cache_hierarchy.clusters.l2cache.ReadCleanReq.mshrMissLatency::processor.cores.core.inst     31306995                       # number of ReadCleanReq MSHR miss ticks (Tick)
board.cache_hierarchy.clusters.l2cache.ReadCleanReq.mshrMissLatency::total     31306995                       # number of ReadCleanReq MSHR miss ticks (Tick)
board.cache_hierarchy.clusters.l2cache.ReadCleanReq.mshrMissRate::processor.cores.core.inst            1                       # mshr miss rate for ReadCleanReq accesses (Ratio)
board.cache_hierarchy.clusters.l2cache.ReadCleanReq.mshrMissRate::total            1                       # mshr miss rate for ReadCleanReq accesses (Ratio)
board.cache_hierarchy.clusters.l2cache.ReadCleanReq.avgMshrMissLatency::processor.cores.core.inst 56510.821300                       # average ReadCleanReq mshr miss latency ((Tick/Count))
board.cache_hierarchy.clusters.l2cache.ReadCleanReq.avgMshrMissLatency::total 56510.821300                       # average ReadCleanReq mshr miss latency ((Tick/Count))
board.cache_hierarchy.clusters.l2cache.ReadExReq.hits::processor.cores.core.data        57111                       # number of ReadExReq hits (Count)
board.cache_hierarchy.clusters.l2cache.ReadExReq.hits::total        57111                       # number of ReadExReq hits (Count)
board.cache_hierarchy.clusters.l2cache.ReadExReq.misses::processor.cores.core.data       570414                       # number of ReadExReq misses (Count)
board.cache_hierarchy.clusters.l2cache.ReadExReq.misses::total       570414                       # number of ReadExReq misses (Count)
board.cache_hierarchy.clusters.l2cache.ReadExReq.missLatency::processor.cores.core.data   9500173650                       # number of ReadExReq miss ticks (Tick)
board.cache_hierarchy.clusters.l2cache.ReadExReq.missLatency::total   9500173650                       # number of ReadExReq miss ticks (Tick)
board.cache_hierarchy.clusters.l2cache.ReadExReq.accesses::processor.cores.core.data       627525                       # number of ReadExReq accesses(hits+misses) (Count)
board.cache_hierarchy.clusters.l2cache.ReadExReq.accesses::total       627525                       # number of ReadExReq accesses(hits+misses) (Count)
board.cache_hierarchy.clusters.l2cache.ReadExReq.missRate::processor.cores.core.data     0.908990                       # miss rate for ReadExReq accesses (Ratio)
board.cache_hierarchy.clusters.l2cache.ReadExReq.missRate::total     0.908990                       # miss rate for ReadExReq accesses (Ratio)
board.cache_hierarchy.clusters.l2cache.ReadExReq.avgMissLatency::processor.cores.core.data 16654.874617                       # average ReadExReq miss latency ((Tick/Count))
board.cache_hierarchy.clusters.l2cache.ReadExReq.avgMissLatency::total 16654.874617                       # average ReadExReq miss latency ((Tick/Count))
board.cache_hierarchy.clusters.l2cache.ReadExReq.mshrMisses::processor.cores.core.data       570414                       # number of ReadExReq MSHR misses (Count)
board.cache_hierarchy.clusters.l2cache.ReadExReq.mshrMisses::total       570414                       # number of ReadExReq MSHR misses (Count)
board.cache_hierarchy.clusters.l2cache.ReadExReq.mshrMissLatency::processor.cores.core.data   8930330064                       # number of ReadExReq MSHR miss ticks (Tick)
board.cache_hierarchy.clusters.l2cache.ReadExReq.mshrMissLatency::total   8930330064                       # number of ReadExReq MSHR miss ticks (Tick)
board.cache_hierarchy.clusters.l2cache.ReadExReq.mshrMissRate::processor.cores.core.data     0.908990                       # mshr miss rate for ReadExReq accesses (Ratio)
board.cache_hierarchy.clusters.l2cache.ReadExReq.mshrMissRate::total     0.908990                       # mshr miss rate for ReadExReq accesses (Ratio)
board.cache_hierarchy.clusters.l2cache.ReadExReq.avgMshrMissLatency::processor.cores.core.data 15655.874617                       # average ReadExReq mshr miss latency ((Tick/Count))
board.cache_hierarchy.clusters.l2cache.ReadExReq.avgMshrMissLatency::total 15655.874617                       # average ReadExReq mshr miss latency ((Tick/Count))
board.cache_hierarchy.clusters.l2cache.ReadSharedReq.hits::processor.cores.core.data      1879645                       # number of ReadSharedReq hits (Count)
board.cache_hierarchy.clusters.l2cache.ReadSharedReq.hits::total      1879645                       # number of ReadSharedReq hits (Count)
board.cache_hierarchy.clusters.l2cache.ReadSharedReq.misses::processor.cores.core.data      2350059                       # number of ReadSharedReq misses (Count)
board.cache_hierarchy.clusters.l2cache.ReadSharedReq.misses::total      2350059                       # number of ReadSharedReq misses (Count)
board.cache_hierarchy.clusters.l2cache.ReadSharedReq.missLatency::processor.cores.core.data  61364648564                       # number of ReadSharedReq miss ticks (Tick)
board.cache_hierarchy.clusters.l2cache.ReadSharedReq.missLatency::total  61364648564                       # number of ReadSharedReq miss ticks (Tick)
board.cache_hierarchy.clusters.l2cache.ReadSharedReq.accesses::processor.cores.core.data      4229704                       # number of ReadSharedReq accesses(hits+misses) (Count)
board.cache_hierarchy.clusters.l2cache.ReadSharedReq.accesses::total      4229704                       # number of ReadSharedReq accesses(hits+misses) (Count)
board.cache_hierarchy.clusters.l2cache.ReadSharedReq.missRate::processor.cores.core.data     0.555608                       # miss rate for ReadSharedReq accesses (Ratio)
board.cache_hierarchy.clusters.l2cache.ReadSharedReq.missRate::total     0.555608                       # miss rate for ReadSharedReq accesses (Ratio)
board.cache_hierarchy.clusters.l2cache.ReadSharedReq.avgMissLatency::processor.cores.core.data 26111.960833                       # average ReadSharedReq miss latency ((Tick/Count))
board.cache_hierarchy.clusters.l2cache.ReadSharedReq.avgMissLatency::total 26111.960833                       # average ReadSharedReq miss latency ((Tick/Count))
board.cache_hierarchy.clusters.l2cache.ReadSharedReq.mshrMisses::processor.cores.core.data      2350059                       # number of ReadSharedReq MSHR misses (Count)
board.cache_hierarchy.clusters.l2cache.ReadSharedReq.mshrMisses::total      2350059                       # number of ReadSharedReq MSHR misses (Count)
board.cache_hierarchy.clusters.l2cache.ReadSharedReq.mshrMissLatency::processor.cores.core.data  59016940622                       # number of ReadSharedReq MSHR miss ticks (Tick)
board.cache_hierarchy.clusters.l2cache.ReadSharedReq.mshrMissLatency::total  59016940622                       # number of ReadSharedReq MSHR miss ticks (Tick)
board.cache_hierarchy.clusters.l2cache.ReadSharedReq.mshrMissRate::processor.cores.core.data     0.555608                       # mshr miss rate for ReadSharedReq accesses (Ratio)
board.cache_hierarchy.clusters.l2cache.ReadSharedReq.mshrMissRate::total     0.555608                       # mshr miss rate for ReadSharedReq accesses (Ratio)
board.cache_hierarchy.clusters.l2cache.ReadSharedReq.avgMshrMissLatency::processor.cores.core.data 25112.961258                       # average ReadSharedReq mshr miss latency ((Tick/Count))
board.cache_hierarchy.clusters.l2cache.ReadSharedReq.avgMshrMissLatency::total 25112.961258                       # average ReadSharedReq mshr miss latency ((Tick/Count))
board.cache_hierarchy.clusters.l2cache.UpgradeReq.hits::processor.cores.core.data       372475                       # number of UpgradeReq hits (Count)
board.cache_hierarchy.clusters.l2cache.UpgradeReq.hits::total       372475                       # number of UpgradeReq hits (Count)
board.cache_hierarchy.clusters.l2cache.UpgradeReq.misses::processor.cores.core.data            1                       # number of UpgradeReq misses (Count)
board.cache_hierarchy.clusters.l2cache.UpgradeReq.misses::total            1                       # number of UpgradeReq misses (Count)
board.cache_hierarchy.clusters.l2cache.UpgradeReq.accesses::processor.cores.core.data       372476                       # number of UpgradeReq accesses(hits+misses) (Count)
board.cache_hierarchy.clusters.l2cache.UpgradeReq.accesses::total       372476                       # number of UpgradeReq accesses(hits+misses) (Count)
board.cache_hierarchy.clusters.l2cache.UpgradeReq.missRate::processor.cores.core.data     0.000003                       # miss rate for UpgradeReq accesses (Ratio)
board.cache_hierarchy.clusters.l2cache.UpgradeReq.missRate::total     0.000003                       # miss rate for UpgradeReq accesses (Ratio)
board.cache_hierarchy.clusters.l2cache.UpgradeReq.mshrMisses::processor.cores.core.data            1                       # number of UpgradeReq MSHR misses (Count)
board.cache_hierarchy.clusters.l2cache.UpgradeReq.mshrMisses::total            1                       # number of UpgradeReq MSHR misses (Count)
board.cache_hierarchy.clusters.l2cache.UpgradeReq.mshrMissLatency::processor.cores.core.data         5328                       # number of UpgradeReq MSHR miss ticks (Tick)
board.cache_hierarchy.clusters.l2cache.UpgradeReq.mshrMissLatency::total         5328                       # number of UpgradeReq MSHR miss ticks (Tick)
board.cache_hierarchy.clusters.l2cache.UpgradeReq.mshrMissRate::processor.cores.core.data     0.000003                       # mshr miss rate for UpgradeReq accesses (Ratio)
board.cache_hierarchy.clusters.l2cache.UpgradeReq.mshrMissRate::total     0.000003                       # mshr miss rate for UpgradeReq accesses (Ratio)
board.cache_hierarchy.clusters.l2cache.UpgradeReq.avgMshrMissLatency::processor.cores.core.data         5328                       # average UpgradeReq mshr miss latency ((Tick/Count))
board.cache_hierarchy.clusters.l2cache.UpgradeReq.avgMshrMissLatency::total         5328                       # average UpgradeReq mshr miss latency ((Tick/Count))
board.cache_hierarchy.clusters.l2cache.WritebackDirty.hits::writebacks      3021146                       # number of WritebackDirty hits (Count)
board.cache_hierarchy.clusters.l2cache.WritebackDirty.hits::total      3021146                       # number of WritebackDirty hits (Count)
board.cache_hierarchy.clusters.l2cache.WritebackDirty.accesses::writebacks      3021146                       # number of WritebackDirty accesses(hits+misses) (Count)
board.cache_hierarchy.clusters.l2cache.WritebackDirty.accesses::total      3021146                       # number of WritebackDirty accesses(hits+misses) (Count)
board.cache_hierarchy.clusters.l2cache.power_state.pwrStateResidencyTicks::UNDEFINED 491493394004                       # Cumulative time (in ticks) in various power states (Tick)
board.cache_hierarchy.clusters.l2cache.tags.tagsInUse 16343.952492                       # Average ticks per tags in use ((Tick/Count))
board.cache_hierarchy.clusters.l2cache.tags.totalRefs     10086964                       # Total number of references to valid blocks. (Count)
board.cache_hierarchy.clusters.l2cache.tags.sampledRefs      2921239                       # Sample count of references to valid blocks. (Count)
board.cache_hierarchy.clusters.l2cache.tags.avgRefs     3.452975                       # Average number of references to valid blocks. ((Count/Count))
board.cache_hierarchy.clusters.l2cache.tags.warmupTick 441493466931                       # The tick when the warmup percentage was hit. (Tick)
board.cache_hierarchy.clusters.l2cache.tags.occupancies::writebacks     1.498840                       # Average occupied blocks per tick, per requestor ((Count/Tick))
board.cache_hierarchy.clusters.l2cache.tags.occupancies::processor.cores.core.inst     5.072990                       # Average occupied blocks per tick, per requestor ((Count/Tick))
board.cache_hierarchy.clusters.l2cache.tags.occupancies::processor.cores.core.data 16337.380661                       # Average occupied blocks per tick, per requestor ((Count/Tick))
board.cache_hierarchy.clusters.l2cache.tags.avgOccs::writebacks     0.000091                       # Average percentage of cache occupancy ((Ratio/Tick))
board.cache_hierarchy.clusters.l2cache.tags.avgOccs::processor.cores.core.inst     0.000310                       # Average percentage of cache occupancy ((Ratio/Tick))
board.cache_hierarchy.clusters.l2cache.tags.avgOccs::processor.cores.core.data     0.997155                       # Average percentage of cache occupancy ((Ratio/Tick))
board.cache_hierarchy.clusters.l2cache.tags.avgOccs::total     0.997556                       # Average percentage of cache occupancy ((Ratio/Tick))
board.cache_hierarchy.clusters.l2cache.tags.occupanciesTaskId::1024        16384                       # Occupied blocks per task id (Count)
board.cache_hierarchy.clusters.l2cache.tags.ageTaskId_1024::0          932                       # Occupied blocks per task id, per block age (Count)
board.cache_hierarchy.clusters.l2cache.tags.ageTaskId_1024::1         8237                       # Occupied blocks per task id, per block age (Count)
board.cache_hierarchy.clusters.l2cache.tags.ageTaskId_1024::2         7212                       # Occupied blocks per task id, per block age (Count)
board.cache_hierarchy.clusters.l2cache.tags.ageTaskId_1024::3            3                       # Occupied blocks per task id, per block age (Count)
board.cache_hierarchy.clusters.l2cache.tags.ratioOccsTaskId::1024            1                       # Ratio of occupied blocks and all blocks, per task id (Ratio)
board.cache_hierarchy.clusters.l2cache.tags.tagAccesses    164314215                       # Number of tag accesses (Count)
board.cache_hierarchy.clusters.l2cache.tags.dataAccesses    164314215                       # Number of data accesses (Count)
board.cache_hierarchy.clusters.l2cache.tags.power_state.pwrStateResidencyTicks::UNDEFINED 491493394004                       # Cumulative time (in ticks) in various power states (Tick)
board.cache_hierarchy.l3_bus.transDist::ReadResp      2350612                       # Transaction distribution (Count)
board.cache_hierarchy.l3_bus.transDist::WritebackDirty      2170768                       # Transaction distribution (Count)
board.cache_hierarchy.l3_bus.transDist::CleanEvict       733370                       # Transaction distribution (Count)
board.cache_hierarchy.l3_bus.transDist::UpgradeReq            1                       # Transaction distribution (Count)
board.cache_hierarchy.l3_bus.transDist::UpgradeResp            1                       # Transaction distribution (Count)
board.cache_hierarchy.l3_bus.transDist::ReadExReq       570414                       # Transaction distribution (Count)
board.cache_hierarchy.l3_bus.transDist::ReadExResp       570414                       # Transaction distribution (Count)
board.cache_hierarchy.l3_bus.transDist::ReadSharedReq      2350613                       # Transaction distribution (Count)
board.cache_hierarchy.l3_bus.pktCount_board.cache_hierarchy.clusters.l2cache.mem_side_port::board.cache_hierarchy.l3_cache.cpu_side_port      8746193                       # Packet count per connected requestor and responder (Count)
board.cache_hierarchy.l3_bus.pktSize_board.cache_hierarchy.clusters.l2cache.mem_side_port::board.cache_hierarchy.l3_cache.cpu_side_port    325874816                       # Cumulative packet size per connected requestor and responder (Byte)
board.cache_hierarchy.l3_bus.snoops                 0                       # Total snoops (Count)
board.cache_hierarchy.l3_bus.snoopTraffic            0                       # Total snoop traffic (Byte)
board.cache_hierarchy.l3_bus.snoopFanout::samples      2921028                       # Request fanout histogram (Count)
board.cache_hierarchy.l3_bus.snoopFanout::mean            0                       # Request fanout histogram (Count)
board.cache_hierarchy.l3_bus.snoopFanout::stdev            0                       # Request fanout histogram (Count)
board.cache_hierarchy.l3_bus.snoopFanout::underflows            0      0.00%      0.00% # Request fanout histogram (Count)
board.cache_hierarchy.l3_bus.snoopFanout::0      2921028    100.00%    100.00% # Request fanout histogram (Count)
board.cache_hierarchy.l3_bus.snoopFanout::1            0      0.00%    100.00% # Request fanout histogram (Count)
board.cache_hierarchy.l3_bus.snoopFanout::overflows            0      0.00%    100.00% # Request fanout histogram (Count)
board.cache_hierarchy.l3_bus.snoopFanout::min_value            0                       # Request fanout histogram (Count)
board.cache_hierarchy.l3_bus.snoopFanout::max_value            0                       # Request fanout histogram (Count)
board.cache_hierarchy.l3_bus.snoopFanout::total      2921028                       # Request fanout histogram (Count)
board.cache_hierarchy.l3_bus.power_state.pwrStateResidencyTicks::UNDEFINED 491493394004                       # Cumulative time (in ticks) in various power states (Tick)
board.cache_hierarchy.l3_bus.reqLayer0.occupancy   3385511766                       # Layer occupancy (ticks) (Tick)
board.cache_hierarchy.l3_bus.reqLayer0.utilization          0.1                       # Layer utilization (Ratio)
board.cache_hierarchy.l3_bus.respLayer0.occupancy   2918105307                       # Layer occupancy (ticks) (Tick)
board.cache_hierarchy.l3_bus.respLayer0.utilization          0.1                       # Layer utilization (Ratio)
board.cache_hierarchy.l3_bus.snoop_filter.totRequests      5825166                       # Total number of requests made to the snoop filter. (Count)
board.cache_hierarchy.l3_bus.snoop_filter.hitSingleRequests      2904139                       # Number of requests hitting in the snoop filter with a single holder of the requested data. (Count)
board.cache_hierarchy.l3_bus.snoop_filter.hitMultiRequests            0                       # Number of requests hitting in the snoop filter with multiple (>1) holders of the requested data. (Count)
board.cache_hierarchy.l3_bus.snoop_filter.totSnoops            0                       # Total number of snoops made to the snoop filter. (Count)
board.cache_hierarchy.l3_bus.snoop_filter.hitSingleSnoops            0                       # Number of snoops hitting in the snoop filter with a single holder of the requested data. (Count)
board.cache_hierarchy.l3_bus.snoop_filter.hitMultiSnoops            0                       # Number of snoops hitting in the snoop filter with multiple (>1) holders of the requested data. (Count)
board.cache_hierarchy.l3_cache.demandHits::processor.cores.core.inst            4                       # number of demand (read+write) hits (Count)
board.cache_hierarchy.l3_cache.demandHits::processor.cores.core.data      2021230                       # number of demand (read+write) hits (Count)
board.cache_hierarchy.l3_cache.demandHits::total      2021234                       # number of demand (read+write) hits (Count)
board.cache_hierarchy.l3_cache.overallHits::processor.cores.core.inst            4                       # number of overall hits (Count)
board.cache_hierarchy.l3_cache.overallHits::processor.cores.core.data      2021230                       # number of overall hits (Count)
board.cache_hierarchy.l3_cache.overallHits::total      2021234                       # number of overall hits (Count)
board.cache_hierarchy.l3_cache.demandMisses::processor.cores.core.inst          550                       # number of demand (read+write) misses (Count)
board.cache_hierarchy.l3_cache.demandMisses::processor.cores.core.data       899243                       # number of demand (read+write) misses (Count)
board.cache_hierarchy.l3_cache.demandMisses::total       899793                       # number of demand (read+write) misses (Count)
board.cache_hierarchy.l3_cache.overallMisses::processor.cores.core.inst          550                       # number of overall misses (Count)
board.cache_hierarchy.l3_cache.overallMisses::processor.cores.core.data       899243                       # number of overall misses (Count)
board.cache_hierarchy.l3_cache.overallMisses::total       899793                       # number of overall misses (Count)
board.cache_hierarchy.l3_cache.demandMissLatency::processor.cores.core.inst     30343293                       # number of demand (read+write) miss ticks (Tick)
board.cache_hierarchy.l3_cache.demandMissLatency::processor.cores.core.data  48880315089                       # number of demand (read+write) miss ticks (Tick)
board.cache_hierarchy.l3_cache.demandMissLatency::total  48910658382                       # number of demand (read+write) miss ticks (Tick)
board.cache_hierarchy.l3_cache.overallMissLatency::processor.cores.core.inst     30343293                       # number of overall miss ticks (Tick)
board.cache_hierarchy.l3_cache.overallMissLatency::processor.cores.core.data  48880315089                       # number of overall miss ticks (Tick)
[...]
board.processor.cores.core.fetch.icacheWaitRetryStallCycles         3302                       # Number of stall cycles due to full MSHR (Cycle)
board.processor.cores.core.fetch.cacheLines     33334754                       # Number of cache lines fetched (Count)
board.processor.cores.core.fetch.icacheSquashes          367                       # Number of outstanding Icache misses that were squashed (Count)
board.processor.cores.core.fetch.nisnDist::samples    150109273                       # Number of instructions fetched each cycle (Total) (Count)
board.processor.cores.core.fetch.nisnDist::mean     3.252037                       # Number of instructions fetched each cycle (Total) (Count)
board.processor.cores.core.fetch.nisnDist::stdev     4.209715                       # Number of instructions fetched each cycle (Total) (Count)
board.processor.cores.core.fetch.nisnDist::underflows            0      0.00%      0.00% # Number of instructions fetched each cycle (Total) (Count)
board.processor.cores.core.fetch.nisnDist::0     83291141     55.49%     55.49% # Number of instructions fetched each cycle (Total) (Count)
board.processor.cores.core.fetch.nisnDist::1      3180154      2.12%     57.61% # Number of instructions fetched each cycle (Total) (Count)
board.processor.cores.core.fetch.nisnDist::2      6321268      4.21%     61.82% # Number of instructions fetched each cycle (Total) (Count)
board.processor.cores.core.fetch.nisnDist::3      4406373      2.94%     64.75% # Number of instructions fetched each cycle (Total) (Count)
board.processor.cores.core.fetch.nisnDist::4      2668933      1.78%     66.53% # Number of instructions fetched each cycle (Total) (Count)
board.processor.cores.core.fetch.nisnDist::5      1420123      0.95%     67.48% # Number of instructions fetched each cycle (Total) (Count)
board.processor.cores.core.fetch.nisnDist::6      6905982      4.60%     72.08% # Number of instructions fetched each cycle (Total) (Count)
board.processor.cores.core.fetch.nisnDist::7      3955771      2.64%     74.71% # Number of instructions fetched each cycle (Total) (Count)
board.processor.cores.core.fetch.nisnDist::8      1588945      1.06%     75.77% # Number of instructions fetched each cycle (Total) (Count)
board.processor.cores.core.fetch.nisnDist::9      4200968      2.80%     78.57% # Number of instructions fetched each cycle (Total) (Count)
board.processor.cores.core.fetch.nisnDist::10     32169615     21.43%    100.00% # Number of instructions fetched each cycle (Total) (Count)
board.processor.cores.core.fetch.nisnDist::overflows            0      0.00%    100.00% # Number of instructions fetched each cycle (Total) (Count)
board.processor.cores.core.fetch.nisnDist::min_value            0                       # Number of instructions fetched each cycle (Total) (Count)
board.processor.cores.core.fetch.nisnDist::max_value           10                       # Number of instructions fetched each cycle (Total) (Count)
board.processor.cores.core.fetch.nisnDist::total    150109273                       # Number of instructions fetched each cycle (Total) (Count)
board.processor.cores.core.fetchStats0.numInsts    303491012                       # Number of instructions fetched (thread level) (Count)
board.processor.cores.core.fetchStats0.numOps            0                       # Number of ops (including micro ops) fetched (thread level) (Count)
board.processor.cores.core.fetchStats0.fetchRate     2.021250                       # Number of inst fetches per cycle ((Count/Cycle))
board.processor.cores.core.fetchStats0.numBranches     10463809                       # Number of branches fetched (Count)
board.processor.cores.core.fetchStats0.branchRate     0.069689                       # Number of branch fetches per cycle (Ratio)
board.processor.cores.core.fetchStats0.icacheStallCycles       215519                       # ICache total stall cycles (Cycle)
board.processor.cores.core.fetchStats0.numFetchSuspends            0                       # Number of times Execute suspended instruction fetching (Count)
board.processor.cores.core.iew.idleCycles            0                       # Number of cycles IEW is idle (Cycle)
board.processor.cores.core.iew.squashCycles       260380                       # Number of cycles IEW is squashing (Cycle)
board.processor.cores.core.iew.blockCycles      5212577                       # Number of cycles IEW is blocking (Cycle)
board.processor.cores.core.iew.unblockCycles       443475                       # Number of cycles IEW is unblocking (Cycle)
board.processor.cores.core.iew.dispatchedInsts    477002887                       # Number of instructions dispatched to IQ (Count)
board.processor.cores.core.iew.dispSquashedInsts        30335                       # Number of squashed instructions skipped by dispatch (Count)
board.processor.cores.core.iew.dispLoadInsts    103704028                       # Number of dispatched load instructions (Count)
board.processor.cores.core.iew.dispStoreInsts     27360992                       # Number of dispatched store instructions (Count)
board.processor.cores.core.iew.dispNonSpecInsts           10                       # Number of dispatched non-speculative instructions (Count)
board.processor.cores.core.iew.iqFullEvents            0                       # Number of times the IQ (or every part of it) has become full , causing a stall (Count)
board.processor.cores.core.iew.lsqFullEvents       443523                       # Number of times the LSQ has become full, causing a stall (Count)
board.processor.cores.core.iew.memOrderViolationEvents         9857                       # Number of memory order violations (Count)
board.processor.cores.core.iew.predictedTakenIncorrect       220736                       # Number of branches that were predicted taken incorrectly (Count)
board.processor.cores.core.iew.predictedNotTakenIncorrect        31081                       # Number of branches that were predicted not taken incorrectly (Count)
board.processor.cores.core.iew.branchMispredicts       251817                       # Number of branch mispredicts detected at execute (Count)
board.processor.cores.core.iew.instsToCommit    439956645                       # Cumulative count of insts sent to commit (Count)
board.processor.cores.core.iew.writebackCount    439843951                       # Cumulative count of insts written-back (Count)
board.processor.cores.core.iew.producerInst    341272366                       # Number of instructions producing a value (Count)
board.processor.cores.core.iew.consumerInst    607614612                       # Number of instructions consuming a value (Count)
board.processor.cores.core.iew.wbRate        2.929361                       # Insts written-back per cycle ((Count/Cycle))
board.processor.cores.core.iew.wbFanout      0.561659                       # Average fanout of values written-back ((Count/Count))
board.processor.cores.core.interrupts.clk_domain.clock         5328                       # Clock period in ticks (Tick)
board.processor.cores.core.lsq0.forwLoads       610608                       # Number of loads that had data forwarded from stores (Count)
board.processor.cores.core.lsq0.squashedLoads      8097673                       # Number of loads squashed (Count)
board.processor.cores.core.lsq0.ignoredResponses          525                       # Number of memory responses ignored because the instruction is squashed (Count)
board.processor.cores.core.lsq0.memOrderViolation         9857                       # Number of memory ordering violations (Count)
board.processor.cores.core.lsq0.squashedStores      1897099                       # Number of stores squashed (Count)
board.processor.cores.core.lsq0.rescheduledLoads            4                       # Number of loads that were rescheduled (Count)
board.processor.cores.core.lsq0.blockedByCache       814274                       # Number of times an access to memory failed due to the cache being blocked (Count)
board.processor.cores.core.lsq0.loadToUse::samples     95606217                       # Distribution of cycle latency between the first time a load is issued and its completion (Unspecified)
board.processor.cores.core.lsq0.loadToUse::mean    58.655673                       # Distribution of cycle latency between the first time a load is issued and its completion (Unspecified)
board.processor.cores.core.lsq0.loadToUse::stdev   141.578316                       # Distribution of cycle latency between the first time a load is issued and its completion (Unspecified)
board.processor.cores.core.lsq0.loadToUse::0-9     65417371     68.42%     68.42% # Distribution of cycle latency between the first time a load is issued and its completion (Unspecified)
board.processor.cores.core.lsq0.loadToUse::10-19      8765354      9.17%     77.59% # Distribution of cycle latency between the first time a load is issued and its completion (Unspecified)
board.processor.cores.core.lsq0.loadToUse::20-29      3269748      3.42%     81.01% # Distribution of cycle latency between the first time a load is issued and its completion (Unspecified)
board.processor.cores.core.lsq0.loadToUse::30-39      2511410      2.63%     83.64% # Distribution of cycle latency between the first time a load is issued and its completion (Unspecified)
board.processor.cores.core.lsq0.loadToUse::40-49       349893      0.37%     84.00% # Distribution of cycle latency between the first time a load is issued and its completion (Unspecified)
board.processor.cores.core.lsq0.loadToUse::50-59        48019      0.05%     84.05% # Distribution of cycle latency between the first time a load is issued and its completion (Unspecified)
board.processor.cores.core.lsq0.loadToUse::60-69        63075      0.07%     84.12% # Distribution of cycle latency between the first time a load is issued and its completion (Unspecified)
board.processor.cores.core.lsq0.loadToUse::70-79        84049      0.09%     84.21% # Distribution of cycle latency between the first time a load is issued and its completion (Unspecified)
board.processor.cores.core.lsq0.loadToUse::80-89       102530      0.11%     84.32% # Distribution of cycle latency between the first time a load is issued and its completion (Unspecified)
board.processor.cores.core.lsq0.loadToUse::90-99       115812      0.12%     84.44% # Distribution of cycle latency between the first time a load is issued and its completion (Unspecified)
board.processor.cores.core.lsq0.loadToUse::100-109       104189      0.11%     84.55% # Distribution of cycle latency between the first time a load is issued and its completion (Unspecified)
board.processor.cores.core.lsq0.loadToUse::110-119       139583      0.15%     84.69% # Distribution of cycle latency between the first time a load is issued and its completion (Unspecified)
board.processor.cores.core.lsq0.loadToUse::120-129       281361      0.29%     84.99% # Distribution of cycle latency between the first time a load is issued and its completion (Unspecified)
board.processor.cores.core.lsq0.loadToUse::130-139       763719      0.80%     85.79% # Distribution of cycle latency between the first time a load is issued and its completion (Unspecified)
board.processor.cores.core.lsq0.loadToUse::140-149      1104336      1.16%     86.94% # Distribution of cycle latency between the first time a load is issued and its completion (Unspecified)
board.processor.cores.core.lsq0.loadToUse::150-159      1040917      1.09%     88.03% # Distribution of cycle latency between the first time a load is issued and its completion (Unspecified)
board.processor.cores.core.lsq0.loadToUse::160-169       204497      0.21%     88.24% # Distribution of cycle latency between the first time a load is issued and its completion (Unspecified)
board.processor.cores.core.lsq0.loadToUse::170-179       174611      0.18%     88.43% # Distribution of cycle latency between the first time a load is issued and its completion (Unspecified)
board.processor.cores.core.lsq0.loadToUse::180-189       214579      0.22%     88.65% # Distribution of cycle latency between the first time a load is issued and its completion (Unspecified)
board.processor.cores.core.lsq0.loadToUse::190-199       174105      0.18%     88.83% # Distribution of cycle latency between the first time a load is issued and its completion (Unspecified)
board.processor.cores.core.lsq0.loadToUse::200-209        92621      0.10%     88.93% # Distribution of cycle latency between the first time a load is issued and its completion (Unspecified)
board.processor.cores.core.lsq0.loadToUse::210-219        70883      0.07%     89.00% # Distribution of cycle latency between the first time a load is issued and its completion (Unspecified)
board.processor.cores.core.lsq0.loadToUse::220-229        87880      0.09%     89.10% # Distribution of cycle latency between the first time a load is issued and its completion (Unspecified)
board.processor.cores.core.lsq0.loadToUse::230-239        87922      0.09%     89.19% # Distribution of cycle latency between the first time a load is issued and its completion (Unspecified)
board.processor.cores.core.lsq0.loadToUse::240-249        92566      0.10%     89.28% # Distribution of cycle latency between the first time a load is issued and its completion (Unspecified)
board.processor.cores.core.lsq0.loadToUse::250-259        99202      0.10%     89.39% # Distribution of cycle latency between the first time a load is issued and its completion (Unspecified)
board.processor.cores.core.lsq0.loadToUse::260-269       160416      0.17%     89.56% # Distribution of cycle latency between the first time a load is issued and its completion (Unspecified)
board.processor.cores.core.lsq0.loadToUse::270-279       293766      0.31%     89.86% # Distribution of cycle latency between the first time a load is issued and its completion (Unspecified)
board.processor.cores.core.lsq0.loadToUse::280-289       609918      0.64%     90.50% # Distribution of cycle latency between the first time a load is issued and its completion (Unspecified)
board.processor.cores.core.lsq0.loadToUse::290-299       989444      1.03%     91.54% # Distribution of cycle latency between the first time a load is issued and its completion (Unspecified)
board.processor.cores.core.lsq0.loadToUse::overflows      8092441      8.46%    100.00% # Distribution of cycle latency between the first time a load is issued and its completion (Unspecified)
board.processor.cores.core.lsq0.loadToUse::min_value            2                       # Distribution of cycle latency between the first time a load is issued and its completion (Unspecified)
board.processor.cores.core.lsq0.loadToUse::max_value         5199                       # Distribution of cycle latency between the first time a load is issued and its completion (Unspecified)
board.processor.cores.core.lsq0.loadToUse::total     95606217                       # Distribution of cycle latency between the first time a load is issued and its completion (Unspecified)
board.processor.cores.core.mmu.dtb.rdAccesses     97224488                       # TLB accesses on read requests (Count)
board.processor.cores.core.mmu.dtb.wrAccesses     25506886                       # TLB accesses on write requests (Count)
board.processor.cores.core.mmu.dtb.rdMisses        73598                       # TLB misses on read requests (Count)
board.processor.cores.core.mmu.dtb.wrMisses         9068                       # TLB misses on write requests (Count)
board.processor.cores.core.mmu.dtb.walker.power_state.pwrStateResidencyTicks::UNDEFINED 491493394004                       # Cumulative time (in ticks) in various power states (Tick)
board.processor.cores.core.mmu.itb.rdAccesses            0                       # TLB accesses on read requests (Count)
board.processor.cores.core.mmu.itb.wrAccesses     33334755                       # TLB accesses on write requests (Count)
board.processor.cores.core.mmu.itb.rdMisses            0                       # TLB misses on read requests (Count)
board.processor.cores.core.mmu.itb.wrMisses            6                       # TLB misses on write requests (Count)
board.processor.cores.core.mmu.itb.walker.power_state.pwrStateResidencyTicks::UNDEFINED 491493394004                       # Cumulative time (in ticks) in various power states (Tick)
board.processor.cores.core.power_state.pwrStateResidencyTicks::ON 491493394004                       # Cumulative time (in ticks) in various power states (Tick)
board.processor.cores.core.rename.squashCycles       260380                       # Number of cycles rename is squashing (Cycle)
board.processor.cores.core.rename.idleCycles     14393123                       # Number of cycles rename is idle (Cycle)
board.processor.cores.core.rename.blockCycles     56600962                       # Number of cycles rename is blocking (Cycle)
board.processor.cores.core.rename.serializeStallCycles            0                       # count of cycles rename stalled for serializing inst (Cycle)
board.processor.cores.core.rename.runCycles     46124056                       # Number of cycles rename is running (Cycle)
board.processor.cores.core.rename.unblockCycles     32730748                       # Number of cycles rename is unblocking (Cycle)
board.processor.cores.core.rename.renamedInsts    479449042                       # Number of instructions processed by rename (Count)
board.processor.cores.core.rename.ROBFullEvents     16982367                       # Number of times rename has blocked due to ROB full (Count)
board.processor.cores.core.rename.SQFullEvents      8818140                       # Number of times rename has blocked due to SQ full (Count)
board.processor.cores.core.rename.renamedOperands    675963360                       # Number of destination operands rename has renamed (Count)
board.processor.cores.core.rename.lookups   1324416915                       # Number of register rename lookups that rename has made (Count)
board.processor.cores.core.rename.intLookups    336804195                       # Number of integer rename lookups (Count)
board.processor.cores.core.rename.fpLookups    502198859                       # Number of floating rename lookups (Count)
board.processor.cores.core.rename.committedMaps    605894090                       # Number of HB maps that are committed (Count)
board.processor.cores.core.rename.undoneMaps     70068062                       # Number of HB maps that are undone due to squashing (Count)
board.processor.cores.core.rename.serializing            0                       # count of serializing insts renamed (Count)
board.processor.cores.core.rename.tempSerializing            0                       # count of temporary serializing insts renamed (Count)
board.processor.cores.core.rename.skidInsts    110952888                       # count of insts added to the skid buffer (Count)
board.processor.cores.core.rob.reads        601335923                       # The number of ROB reads (Count)
board.processor.cores.core.rob.writes       959482958                       # The number of ROB writes (Count)
board.processor.cores.core.thread_0.numInsts    269660713                       # Number of Instructions committed (Count)
board.processor.cores.core.thread_0.numOps    434624693                       # Number of Ops committed (Count)
board.processor.cores.core.thread_0.numMemRefs            0                       # Number of Memory References (Count)
board.processor.cores.core.workload.numSyscalls            0                       # Number of system calls (Count)
board.workload.inst.arm                             0                       # number of arm instructions executed (Count)
board.workload.inst.quiesce                         0                       # number of quiesce instructions executed (Count)

---------- End Simulation Statistics   ----------
