warn: Max ticks has already been set prior to setting it through the run call. In these cases the max ticks set through the `run` function is used
Global frequency set at 1000000000000 ticks per second
warn: No dot file generated. Please install pydot to generate the dot file and pdf.
src/mem/dram_interface.cc:690: warn: DRAM device capacity (16384 Mbytes) does not match the address range assigned (512 Mbytes)
src/mem/dram_interface.cc:690: warn: DRAM device capacity (16384 Mbytes) does not match the address range assigned (512 Mbytes)
src/base/statistics.hh:279: warn: One of the stats is a legacy stat. Legacy stat is a stat that does not belong to any statistics::Group. Legacy stat is deprecated.
numIQs: 1, numEntriesDividedIQ: 64
numPorts: 11
src/base/remote_gdb.cc:418: warn: Sockets disabled, not accepting gdb connections
src/sim/process.cc:396: warn: Checkpoints for pipes, device drivers and sockets do not work.
gem5 Simulator System.  https://www.gem5.org
gem5 is copyrighted software; use the --copyright option for details.

gem5 version 24.0.0.1
gem5 compiled Apr 11 2025 17:00:25
gem5 started Apr 11 2025 17:20:34
gem5 executing on ce101.sci.unican.es, pid 1534939
command line: /nfs/home/ce/alonsoge/gem5/build/X86/gem5.opt --outdir=/nfs/home/ce/alonsoge/gem5/tfg/out/batch/NAS/bigO3/ft.W.x/iq_256 /nfs/home/ce/alonsoge/gem5/tfg/configs/restore-checkpoint.py --config bigO3 --ckpt_path /nfs/shared/ce/gem5/ckpts/x86/1core/1GB/NPB3.3-SER --application /nfs/shared/ce/gem5/bin/NPB3.3-SER/ft.W.x --num_cores 1 --mem_size 1 --works 10 --num_ticks 100000000000 --iq_size 256

info: Standard input is not a terminal, disabling listeners.
src/sim/simulate.cc:199: info: Entering event queue @ 270681353361.  Starting simulation...
Workend 1
src/sim/simulate.cc:199: info: Entering event queue @ 302692401936.  Starting simulation...
warn: No behavior was set by the user for work begin. Default behavior is resetting the stats and continuing.
src/sim/simulate.cc:199: info: Entering event queue @ 302692418253.  Starting simulation...
Workend 2
src/sim/simulate.cc:199: info: Entering event queue @ 328064976630.  Starting simulation...
src/sim/simulate.cc:199: info: Entering event queue @ 328064994612.  Starting simulation...
Workend 3
src/sim/simulate.cc:199: info: Entering event queue @ 353424891663.  Starting simulation...
src/sim/simulate.cc:199: info: Entering event queue @ 353424909645.  Starting simulation...
Workend 4
src/sim/simulate.cc:199: info: Entering event queue @ 378786967200.  Starting simulation...
src/sim/simulate.cc:199: info: Entering event queue @ 378786985182.  Starting simulation...
Workend 5
src/sim/simulate.cc:199: info: Entering event queue @ 404145090360.  Starting simulation...
src/sim/simulate.cc:199: info: Entering event queue @ 404145108342.  Starting simulation...
Workend 6
src/sim/simulate.cc:199: info: Entering event queue @ 429516526860.  Starting simulation...


 NAS Parallel Benchmarks (NPB3.3-SER) - FT Benchmark

 Size                :  128x 128x  32
 Iterations          :              6

 T =    1     Checksum =    5.673612178944D+02    5.293246849175D+02
 T =    2     Checksum =    5.631436885271D+02    5.282149986629D+02
 T =    3     Checksum =    5.594024089970D+02    5.270996558037D+02
 T =    4     Checksum =    5.560698047020D+02    5.260027904925D+02
 T =    5     Checksum =    5.530898991250D+02    5.249400845633D+02
 T =    6     Checksum =    5.504159734538D+02    5.239212247086D+02
 Verification test for FT successful


 FT Benchmark Completed.
 Class           =                        W
 Size            =            128x 128x  32
 Iterations      =                        6
 Time in seconds =                     0.31
 Mop/s total     =                  1205.60
 Operation type  =           floating point
 Verification    =               SUCCESSFUL
 Version         =                    3.3.1
 Compile date    =              06 Feb 2025

 Compile options:
    F77          = gfortran-4.4
    FLINK        = $(F77)
    F_LIB        = (none)
    F_INC        = (none)
    FFLAGS       = -cpp -O3 -mcmodel=medium
    FLINKFLAGS   = -O3 -mcmodel=medium -pthread -lrt
    RAND         = randi8


 Please send all errors/feedbacks to:

 NPB Development Team
 npb@nas.nasa.gov


Exiting @ tick 429557742603 because exiting with last active thread context.
