warn: Max ticks has already been set prior to setting it through the run call. In these cases the max ticks set through the `run` function is used
Global frequency set at 1000000000000 ticks per second
warn: No dot file generated. Please install pydot to generate the dot file and pdf.
src/mem/dram_interface.cc:690: warn: DRAM device capacity (16384 Mbytes) does not match the address range assigned (512 Mbytes)
src/mem/dram_interface.cc:690: warn: DRAM device capacity (16384 Mbytes) does not match the address range assigned (512 Mbytes)
src/base/statistics.hh:279: warn: One of the stats is a legacy stat. Legacy stat is a stat that does not belong to any statistics::Group. Legacy stat is deprecated.
src/base/remote_gdb.cc:418: warn: Sockets disabled, not accepting gdb connections
src/sim/process.cc:396: warn: Checkpoints for pipes, device drivers and sockets do not work.
gem5 Simulator System.  https://www.gem5.org
gem5 is copyrighted software; use the --copyright option for details.

gem5 version 24.0.0.1
gem5 compiled May 12 2025 10:39:29
gem5 started May 12 2025 11:54:08
gem5 executing on ce112.sci.unican.es, pid 1423804
command line: /nfs/home/ce/alonsoge/gem5/build/X86/gem5.opt --outdir=/nfs/home/ce/alonsoge/gem5/tfg/out/batch/NAS/generalO3/mg.W.x/iq_900/IQs_1 /nfs/home/ce/alonsoge/gem5/tfg/configs/restore-checkpoint.py --config generalO3 --ckpt_path /nfs/shared/ce/gem5/ckpts/x86/1core/1GB/NPB3.3-SER --application /nfs/shared/ce/gem5/bin/NPB3.3-SER/mg.W.x --num_cores 1 --mem_size 1 --works 10 --num_ticks 100000000000 --iq_size 900 --num_IQs 1 --num_ports 12 --num_DividedIQ_entries 900

info: Standard input is not a terminal, disabling listeners.
src/sim/simulate.cc:199: info: Entering event queue @ 441493394004.  Starting simulation...
Workend 1
src/sim/simulate.cc:199: info: Entering event queue @ 490491828189.  Starting simulation...
warn: No behavior was set by the user for work begin. Default behavior is resetting the stats and continuing.
src/sim/simulate.cc:199: info: Entering event queue @ 490491832185.  Starting simulation...
Workend 2
src/sim/simulate.cc:199: info: Entering event queue @ 522618462729.  Starting simulation...
src/sim/simulate.cc:199: info: Entering event queue @ 522618467391.  Starting simulation...
Workend 3
src/sim/simulate.cc:199: info: Entering event queue @ 554980629501.  Starting simulation...
src/sim/simulate.cc:199: info: Entering event queue @ 554980633497.  Starting simulation...
Workend 4
src/sim/simulate.cc:199: info: Entering event queue @ 586859705181.  Starting simulation...
src/sim/mem_state.cc:448: info: Increasing stack size by one page.
src/sim/mem_state.cc:448: info: Increasing stack size by one page.


 NAS Parallel Benchmarks (NPB3.3-SER) - MG Benchmark

 No input file. Using compiled defaults 
 Size:  128x 128x 128  (class W)
 Iterations:   4

 Initialization time:           0.373 seconds

  iter   1
  iter   4

 Benchmark completed 
 VERIFICATION SUCCESSFUL 
 L2 Norm is  0.6467329375339E-05
 Error is    0.1126351067593E-13


 MG Benchmark Completed.
 Class           =                        W
 Size            =            128x 128x 128
 Iterations      =                        4
 Time in seconds =                     0.22
 Mop/s total     =                  2253.79
 Operation type  =           floating point
 Verification    =               SUCCESSFUL
 Version         =                    3.3.1
 Compile date    =              25 Mar 2025

 Compile options:
    F77          = gfortran-4.4
    FLINK        = $(F77)
    F_LIB        = (none)
    F_INC        = (none)
    FFLAGS       = -cpp -O3 -mcmodel=medium
    FLINKFLAGS   = -O3 -mcmodel=medium -pthread -lrt
    RAND         = randi8


 Please send all errors/feedbacks to:

 NPB Development Team
 npb@nas.nasa.gov


Exiting @ tick 589150341585 because exiting with last active thread context.
