
---------- Begin Simulation Statistics ----------
simSeconds                                   0.034170                       # Number of seconds simulated (Second)
simTicks                                  34169708088                       # Number of ticks simulated (Tick)
finalTick                                589150341585                       # Number of ticks from beginning of simulation (restored from checkpoints and never reset) (Tick)
simFreq                                  1000000000000                       # The number of ticks per simulated second ((Tick/Second))
hostSeconds                                   4552.74                       # Real time elapsed on the host (Second)
hostTickRate                                  7505305                       # The number of ticks simulated per host second (ticks/s) ((Tick/Second))
hostMemory                                    1927976                       # Number of bytes of host memory used (Byte)
simInsts                                   1177628417                       # Number of instructions simulated (Count)
simOps                                     1899730219                       # Number of ops (including micro ops) simulated (Count)
hostInstRate                                   258664                       # Simulator instruction rate (inst/s) ((Count/Second))
hostOpRate                                     417272                       # Simulator op (including micro ops) rate (op/s) ((Count/Second))
board.cache_hierarchy.clusters.dptw_cache.blockedCycles::no_mshrs            0                       # number of cycles access was blocked (Cycle)
board.cache_hierarchy.clusters.dptw_cache.blockedCycles::no_targets            0                       # number of cycles access was blocked (Cycle)
board.cache_hierarchy.clusters.dptw_cache.blockedCauses::no_mshrs            0                       # number of times access was blocked (Count)
board.cache_hierarchy.clusters.dptw_cache.blockedCauses::no_targets            0                       # number of times access was blocked (Count)
board.cache_hierarchy.clusters.dptw_cache.avgBlocked::no_mshrs          nan                       # average number of cycles each access was blocked ((Cycle/Count))
board.cache_hierarchy.clusters.dptw_cache.avgBlocked::no_targets          nan                       # average number of cycles each access was blocked ((Cycle/Count))
board.cache_hierarchy.clusters.dptw_cache.replacements            0                       # number of replacements (Count)
board.cache_hierarchy.clusters.dptw_cache.power_state.pwrStateResidencyTicks::UNDEFINED 589150341585                       # Cumulative time (in ticks) in various power states (Tick)
board.cache_hierarchy.clusters.dptw_cache.tags.tagsInUse            0                       # Average ticks per tags in use ((Tick/Count))
board.cache_hierarchy.clusters.dptw_cache.tags.totalRefs            0                       # Total number of references to valid blocks. (Count)
board.cache_hierarchy.clusters.dptw_cache.tags.sampledRefs            0                       # Sample count of references to valid blocks. (Count)
board.cache_hierarchy.clusters.dptw_cache.tags.avgRefs          nan                       # Average number of references to valid blocks. ((Count/Count))
board.cache_hierarchy.clusters.dptw_cache.tags.warmupTick            0                       # The tick when the warmup percentage was hit. (Tick)
board.cache_hierarchy.clusters.dptw_cache.tags.tagAccesses            0                       # Number of tag accesses (Count)
board.cache_hierarchy.clusters.dptw_cache.tags.dataAccesses            0                       # Number of data accesses (Count)
board.cache_hierarchy.clusters.dptw_cache.tags.power_state.pwrStateResidencyTicks::UNDEFINED 589150341585                       # Cumulative time (in ticks) in various power states (Tick)
board.cache_hierarchy.clusters.iptw_cache.blockedCycles::no_mshrs            0                       # number of cycles access was blocked (Cycle)
board.cache_hierarchy.clusters.iptw_cache.blockedCycles::no_targets            0                       # number of cycles access was blocked (Cycle)
board.cache_hierarchy.clusters.iptw_cache.blockedCauses::no_mshrs            0                       # number of times access was blocked (Count)
board.cache_hierarchy.clusters.iptw_cache.blockedCauses::no_targets            0                       # number of times access was blocked (Count)
board.cache_hierarchy.clusters.iptw_cache.avgBlocked::no_mshrs          nan                       # average number of cycles each access was blocked ((Cycle/Count))
board.cache_hierarchy.clusters.iptw_cache.avgBlocked::no_targets          nan                       # average number of cycles each access was blocked ((Cycle/Count))
board.cache_hierarchy.clusters.iptw_cache.replacements            0                       # number of replacements (Count)
board.cache_hierarchy.clusters.iptw_cache.power_state.pwrStateResidencyTicks::UNDEFINED 589150341585                       # Cumulative time (in ticks) in various power states (Tick)
board.cache_hierarchy.clusters.iptw_cache.tags.tagsInUse            0                       # Average ticks per tags in use ((Tick/Count))
board.cache_hierarchy.clusters.iptw_cache.tags.totalRefs            0                       # Total number of references to valid blocks. (Count)
board.cache_hierarchy.clusters.iptw_cache.tags.sampledRefs            0                       # Sample count of references to valid blocks. (Count)
board.cache_hierarchy.clusters.iptw_cache.tags.avgRefs          nan                       # Average number of references to valid blocks. ((Count/Count))
board.cache_hierarchy.clusters.iptw_cache.tags.warmupTick            0                       # The tick when the warmup percentage was hit. (Tick)
board.cache_hierarchy.clusters.iptw_cache.tags.tagAccesses            0                       # Number of tag accesses (Count)
board.cache_hierarchy.clusters.iptw_cache.tags.dataAccesses            0                       # Number of data accesses (Count)
board.cache_hierarchy.clusters.iptw_cache.tags.power_state.pwrStateResidencyTicks::UNDEFINED 589150341585                       # Cumulative time (in ticks) in various power states (Tick)
board.cache_hierarchy.clusters.l1dcache.demandHits::processor.cores.core.data    108789206                       # number of demand (read+write) hits (Count)
board.cache_hierarchy.clusters.l1dcache.demandHits::total    108789206                       # number of demand (read+write) hits (Count)
board.cache_hierarchy.clusters.l1dcache.overallHits::processor.cores.core.data    108789206                       # number of overall hits (Count)
board.cache_hierarchy.clusters.l1dcache.overallHits::total    108789206                       # number of overall hits (Count)
board.cache_hierarchy.clusters.l1dcache.demandMisses::processor.cores.core.data     23513432                       # number of demand (read+write) misses (Count)
board.cache_hierarchy.clusters.l1dcache.demandMisses::total     23513432                       # number of demand (read+write) misses (Count)
board.cache_hierarchy.clusters.l1dcache.overallMisses::processor.cores.core.data     23513432                       # number of overall misses (Count)
board.cache_hierarchy.clusters.l1dcache.overallMisses::total     23513432                       # number of overall misses (Count)
board.cache_hierarchy.clusters.l1dcache.demandMissLatency::processor.cores.core.data 158319402397                       # number of demand (read+write) miss ticks (Tick)
board.cache_hierarchy.clusters.l1dcache.demandMissLatency::total 158319402397                       # number of demand (read+write) miss ticks (Tick)
board.cache_hierarchy.clusters.l1dcache.overallMissLatency::processor.cores.core.data 158319402397                       # number of overall miss ticks (Tick)
board.cache_hierarchy.clusters.l1dcache.overallMissLatency::total 158319402397                       # number of overall miss ticks (Tick)
board.cache_hierarchy.clusters.l1dcache.demandAccesses::processor.cores.core.data    132302638                       # number of demand (read+write) accesses (Count)
board.cache_hierarchy.clusters.l1dcache.demandAccesses::total    132302638                       # number of demand (read+write) accesses (Count)
board.cache_hierarchy.clusters.l1dcache.overallAccesses::processor.cores.core.data    132302638                       # number of overall (read+write) accesses (Count)
board.cache_hierarchy.clusters.l1dcache.overallAccesses::total    132302638                       # number of overall (read+write) accesses (Count)
board.cache_hierarchy.clusters.l1dcache.demandMissRate::processor.cores.core.data     0.177725                       # miss rate for demand accesses (Ratio)
board.cache_hierarchy.clusters.l1dcache.demandMissRate::total     0.177725                       # miss rate for demand accesses (Ratio)
board.cache_hierarchy.clusters.l1dcache.overallMissRate::processor.cores.core.data     0.177725                       # miss rate for overall accesses (Ratio)
board.cache_hierarchy.clusters.l1dcache.overallMissRate::total     0.177725                       # miss rate for overall accesses (Ratio)
board.cache_hierarchy.clusters.l1dcache.demandAvgMissLatency::processor.cores.core.data  6733.147352                       # average overall miss latency in ticks ((Tick/Count))
board.cache_hierarchy.clusters.l1dcache.demandAvgMissLatency::total  6733.147352                       # average overall miss latency in ticks ((Tick/Count))
board.cache_hierarchy.clusters.l1dcache.overallAvgMissLatency::processor.cores.core.data  6733.147352                       # average overall miss latency ((Tick/Count))
board.cache_hierarchy.clusters.l1dcache.overallAvgMissLatency::total  6733.147352                       # average overall miss latency ((Tick/Count))
board.cache_hierarchy.clusters.l1dcache.blockedCycles::no_mshrs        10949                       # number of cycles access was blocked (Cycle)
board.cache_hierarchy.clusters.l1dcache.blockedCycles::no_targets     14125202                       # number of cycles access was blocked (Cycle)
board.cache_hierarchy.clusters.l1dcache.blockedCauses::no_mshrs         4725                       # number of times access was blocked (Count)
board.cache_hierarchy.clusters.l1dcache.blockedCauses::no_targets       885499                       # number of times access was blocked (Count)
board.cache_hierarchy.clusters.l1dcache.avgBlocked::no_mshrs     2.317249                       # average number of cycles each access was blocked ((Cycle/Count))
board.cache_hierarchy.clusters.l1dcache.avgBlocked::no_targets    15.951686                       # average number of cycles each access was blocked ((Cycle/Count))
board.cache_hierarchy.clusters.l1dcache.writebacks::writebacks      3394735                       # number of writebacks (Count)
board.cache_hierarchy.clusters.l1dcache.writebacks::total      3394735                       # number of writebacks (Count)
board.cache_hierarchy.clusters.l1dcache.demandMshrHits::processor.cores.core.data     17343342                       # number of demand (read+write) MSHR hits (Count)
board.cache_hierarchy.clusters.l1dcache.demandMshrHits::total     17343342                       # number of demand (read+write) MSHR hits (Count)
board.cache_hierarchy.clusters.l1dcache.overallMshrHits::processor.cores.core.data     17343342                       # number of overall MSHR hits (Count)
board.cache_hierarchy.clusters.l1dcache.overallMshrHits::total     17343342                       # number of overall MSHR hits (Count)
board.cache_hierarchy.clusters.l1dcache.demandMshrMisses::processor.cores.core.data      6170090                       # number of demand (read+write) MSHR misses (Count)
board.cache_hierarchy.clusters.l1dcache.demandMshrMisses::total      6170090                       # number of demand (read+write) MSHR misses (Count)
board.cache_hierarchy.clusters.l1dcache.overallMshrMisses::processor.cores.core.data      6170090                       # number of overall MSHR misses (Count)
board.cache_hierarchy.clusters.l1dcache.overallMshrMisses::total      6170090                       # number of overall MSHR misses (Count)
board.cache_hierarchy.clusters.l1dcache.demandMshrMissLatency::processor.cores.core.data  44323301945                       # number of demand (read+write) MSHR miss ticks (Tick)
board.cache_hierarchy.clusters.l1dcache.demandMshrMissLatency::total  44323301945                       # number of demand (read+write) MSHR miss ticks (Tick)
board.cache_hierarchy.clusters.l1dcache.overallMshrMissLatency::processor.cores.core.data  44323301945                       # number of overall MSHR miss ticks (Tick)
board.cache_hierarchy.clusters.l1dcache.overallMshrMissLatency::total  44323301945                       # number of overall MSHR miss ticks (Tick)
board.cache_hierarchy.clusters.l1dcache.demandMshrMissRate::processor.cores.core.data     0.046636                       # mshr miss ratio for demand accesses (Ratio)
board.cache_hierarchy.clusters.l1dcache.demandMshrMissRate::total     0.046636                       # mshr miss ratio for demand accesses (Ratio)
board.cache_hierarchy.clusters.l1dcache.overallMshrMissRate::processor.cores.core.data     0.046636                       # mshr miss ratio for overall accesses (Ratio)
board.cache_hierarchy.clusters.l1dcache.overallMshrMissRate::total     0.046636                       # mshr miss ratio for overall accesses (Ratio)
board.cache_hierarchy.clusters.l1dcache.demandAvgMshrMissLatency::processor.cores.core.data  7183.574623                       # average overall mshr miss latency ((Tick/Count))
board.cache_hierarchy.clusters.l1dcache.demandAvgMshrMissLatency::total  7183.574623                       # average overall mshr miss latency ((Tick/Count))
board.cache_hierarchy.clusters.l1dcache.overallAvgMshrMissLatency::processor.cores.core.data  7183.574623                       # average overall mshr miss latency ((Tick/Count))
board.cache_hierarchy.clusters.l1dcache.overallAvgMshrMissLatency::total  7183.574623                       # average overall mshr miss latency ((Tick/Count))
board.cache_hierarchy.clusters.l1dcache.replacements      5522361                       # number of replacements (Count)
board.cache_hierarchy.clusters.l1dcache.LockedRMWReadReq.hits::processor.cores.core.data           51                       # number of LockedRMWReadReq hits (Count)
board.cache_hierarchy.clusters.l1dcache.LockedRMWReadReq.hits::total           51                       # number of LockedRMWReadReq hits (Count)
board.cache_hierarchy.clusters.l1dcache.LockedRMWReadReq.misses::processor.cores.core.data            3                       # number of LockedRMWReadReq misses (Count)
board.cache_hierarchy.clusters.l1dcache.LockedRMWReadReq.misses::total            3                       # number of LockedRMWReadReq misses (Count)
board.cache_hierarchy.clusters.l1dcache.LockedRMWReadReq.missLatency::processor.cores.core.data        70596                       # number of LockedRMWReadReq miss ticks (Tick)
board.cache_hierarchy.clusters.l1dcache.LockedRMWReadReq.missLatency::total        70596                       # number of LockedRMWReadReq miss ticks (Tick)
board.cache_hierarchy.clusters.l1dcache.LockedRMWReadReq.accesses::processor.cores.core.data           54                       # number of LockedRMWReadReq accesses(hits+misses) (Count)
board.cache_hierarchy.clusters.l1dcache.LockedRMWReadReq.accesses::total           54                       # number of LockedRMWReadReq accesses(hits+misses) (Count)
board.cache_hierarchy.clusters.l1dcache.LockedRMWReadReq.missRate::processor.cores.core.data     0.055556                       # miss rate for LockedRMWReadReq accesses (Ratio)
board.cache_hierarchy.clusters.l1dcache.LockedRMWReadReq.missRate::total     0.055556                       # miss rate for LockedRMWReadReq accesses (Ratio)
board.cache_hierarchy.clusters.l1dcache.LockedRMWReadReq.avgMissLatency::processor.cores.core.data        23532                       # average LockedRMWReadReq miss latency ((Tick/Count))
board.cache_hierarchy.clusters.l1dcache.LockedRMWReadReq.avgMissLatency::total        23532                       # average LockedRMWReadReq miss latency ((Tick/Count))
board.cache_hierarchy.clusters.l1dcache.LockedRMWReadReq.mshrMisses::processor.cores.core.data            3                       # number of LockedRMWReadReq MSHR misses (Count)
board.cache_hierarchy.clusters.l1dcache.LockedRMWReadReq.mshrMisses::total            3                       # number of LockedRMWReadReq MSHR misses (Count)
board.cache_hierarchy.clusters.l1dcache.LockedRMWReadReq.mshrMissLatency::processor.cores.core.data       273726                       # number of LockedRMWReadReq MSHR miss ticks (Tick)
board.cache_hierarchy.clusters.l1dcache.LockedRMWReadReq.mshrMissLatency::total       273726                       # number of LockedRMWReadReq MSHR miss ticks (Tick)
board.cache_hierarchy.clusters.l1dcache.LockedRMWReadReq.mshrMissRate::processor.cores.core.data     0.055556                       # mshr miss rate for LockedRMWReadReq accesses (Ratio)
board.cache_hierarchy.clusters.l1dcache.LockedRMWReadReq.mshrMissRate::total     0.055556                       # mshr miss rate for LockedRMWReadReq accesses (Ratio)
board.cache_hierarchy.clusters.l1dcache.LockedRMWReadReq.avgMshrMissLatency::processor.cores.core.data        91242                       # average LockedRMWReadReq mshr miss latency ((Tick/Count))
board.cache_hierarchy.clusters.l1dcache.LockedRMWReadReq.avgMshrMissLatency::total        91242                       # average LockedRMWReadReq mshr miss latency ((Tick/Count))
board.cache_hierarchy.clusters.l1dcache.LockedRMWWriteReq.hits::processor.cores.core.data           54                       # number of LockedRMWWriteReq hits (Count)
board.cache_hierarchy.clusters.l1dcache.LockedRMWWriteReq.hits::total           54                       # number of LockedRMWWriteReq hits (Count)
board.cache_hierarchy.clusters.l1dcache.LockedRMWWriteReq.accesses::processor.cores.core.data           54                       # number of LockedRMWWriteReq accesses(hits+misses) (Count)
board.cache_hierarchy.clusters.l1dcache.LockedRMWWriteReq.accesses::total           54                       # number of LockedRMWWriteReq accesses(hits+misses) (Count)
board.cache_hierarchy.clusters.l1dcache.ReadReq.hits::processor.cores.core.data     82911133                       # number of ReadReq hits (Count)
board.cache_hierarchy.clusters.l1dcache.ReadReq.hits::total     82911133                       # number of ReadReq hits (Count)
board.cache_hierarchy.clusters.l1dcache.ReadReq.misses::processor.cores.core.data     22142165                       # number of ReadReq misses (Count)
board.cache_hierarchy.clusters.l1dcache.ReadReq.misses::total     22142165                       # number of ReadReq misses (Count)
board.cache_hierarchy.clusters.l1dcache.ReadReq.missLatency::processor.cores.core.data 149488256106                       # number of ReadReq miss ticks (Tick)
board.cache_hierarchy.clusters.l1dcache.ReadReq.missLatency::total 149488256106                       # number of ReadReq miss ticks (Tick)
board.cache_hierarchy.clusters.l1dcache.ReadReq.accesses::processor.cores.core.data    105053298                       # number of ReadReq accesses(hits+misses) (Count)
board.cache_hierarchy.clusters.l1dcache.ReadReq.accesses::total    105053298                       # number of ReadReq accesses(hits+misses) (Count)
board.cache_hierarchy.clusters.l1dcache.ReadReq.missRate::processor.cores.core.data     0.210771                       # miss rate for ReadReq accesses (Ratio)
board.cache_hierarchy.clusters.l1dcache.ReadReq.missRate::total     0.210771                       # miss rate for ReadReq accesses (Ratio)
board.cache_hierarchy.clusters.l1dcache.ReadReq.avgMissLatency::processor.cores.core.data  6751.293566                       # average ReadReq miss latency ((Tick/Count))
board.cache_hierarchy.clusters.l1dcache.ReadReq.avgMissLatency::total  6751.293566                       # average ReadReq miss latency ((Tick/Count))
board.cache_hierarchy.clusters.l1dcache.ReadReq.mshrHits::processor.cores.core.data     17343310                       # number of ReadReq MSHR hits (Count)
board.cache_hierarchy.clusters.l1dcache.ReadReq.mshrHits::total     17343310                       # number of ReadReq MSHR hits (Count)
board.cache_hierarchy.clusters.l1dcache.ReadReq.mshrMisses::processor.cores.core.data      4798855                       # number of ReadReq MSHR misses (Count)
board.cache_hierarchy.clusters.l1dcache.ReadReq.mshrMisses::total      4798855                       # number of ReadReq MSHR misses (Count)
board.cache_hierarchy.clusters.l1dcache.ReadReq.mshrMissLatency::processor.cores.core.data  35948911104                       # number of ReadReq MSHR miss ticks (Tick)
board.cache_hierarchy.clusters.l1dcache.ReadReq.mshrMissLatency::total  35948911104                       # number of ReadReq MSHR miss ticks (Tick)
board.cache_hierarchy.clusters.l1dcache.ReadReq.mshrMissRate::processor.cores.core.data     0.045680                       # mshr miss rate for ReadReq accesses (Ratio)
board.cache_hierarchy.clusters.l1dcache.ReadReq.mshrMissRate::total     0.045680                       # mshr miss rate for ReadReq accesses (Ratio)
board.cache_hierarchy.clusters.l1dcache.ReadReq.avgMshrMissLatency::processor.cores.core.data  7491.143430                       # average ReadReq mshr miss latency ((Tick/Count))
board.cache_hierarchy.clusters.l1dcache.ReadReq.avgMshrMissLatency::total  7491.143430                       # average ReadReq mshr miss latency ((Tick/Count))
board.cache_hierarchy.clusters.l1dcache.WriteReq.hits::processor.cores.core.data     25878073                       # number of WriteReq hits (Count)
board.cache_hierarchy.clusters.l1dcache.WriteReq.hits::total     25878073                       # number of WriteReq hits (Count)
board.cache_hierarchy.clusters.l1dcache.WriteReq.misses::processor.cores.core.data      1371267                       # number of WriteReq misses (Count)
board.cache_hierarchy.clusters.l1dcache.WriteReq.misses::total      1371267                       # number of WriteReq misses (Count)
board.cache_hierarchy.clusters.l1dcache.WriteReq.missLatency::processor.cores.core.data   8831146291                       # number of WriteReq miss ticks (Tick)
board.cache_hierarchy.clusters.l1dcache.WriteReq.missLatency::total   8831146291                       # number of WriteReq miss ticks (Tick)
board.cache_hierarchy.clusters.l1dcache.WriteReq.accesses::processor.cores.core.data     27249340                       # number of WriteReq accesses(hits+misses) (Count)
board.cache_hierarchy.clusters.l1dcache.WriteReq.accesses::total     27249340                       # number of WriteReq accesses(hits+misses) (Count)
board.cache_hierarchy.clusters.l1dcache.WriteReq.missRate::processor.cores.core.data     0.050323                       # miss rate for WriteReq accesses (Ratio)
board.cache_hierarchy.clusters.l1dcache.WriteReq.missRate::total     0.050323                       # miss rate for WriteReq accesses (Ratio)
board.cache_hierarchy.clusters.l1dcache.WriteReq.avgMissLatency::processor.cores.core.data  6440.136232                       # average WriteReq miss latency ((Tick/Count))
board.cache_hierarchy.clusters.l1dcache.WriteReq.avgMissLatency::total  6440.136232                       # average WriteReq miss latency ((Tick/Count))
board.cache_hierarchy.clusters.l1dcache.WriteReq.mshrHits::processor.cores.core.data           32                       # number of WriteReq MSHR hits (Count)
board.cache_hierarchy.clusters.l1dcache.WriteReq.mshrHits::total           32                       # number of WriteReq MSHR hits (Count)
board.cache_hierarchy.clusters.l1dcache.WriteReq.mshrMisses::processor.cores.core.data      1371235                       # number of WriteReq MSHR misses (Count)
board.cache_hierarchy.clusters.l1dcache.WriteReq.mshrMisses::total      1371235                       # number of WriteReq MSHR misses (Count)
board.cache_hierarchy.clusters.l1dcache.WriteReq.mshrMissLatency::processor.cores.core.data   8374390841                       # number of WriteReq MSHR miss ticks (Tick)
board.cache_hierarchy.clusters.l1dcache.WriteReq.mshrMissLatency::total   8374390841                       # number of WriteReq MSHR miss ticks (Tick)
board.cache_hierarchy.clusters.l1dcache.WriteReq.mshrMissRate::processor.cores.core.data     0.050322                       # mshr miss rate for WriteReq accesses (Ratio)
board.cache_hierarchy.clusters.l1dcache.WriteReq.mshrMissRate::total     0.050322                       # mshr miss rate for WriteReq accesses (Ratio)
board.cache_hierarchy.clusters.l1dcache.WriteReq.avgMshrMissLatency::processor.cores.core.data  6107.188659                       # average WriteReq mshr miss latency ((Tick/Count))
board.cache_hierarchy.clusters.l1dcache.WriteReq.avgMshrMissLatency::total  6107.188659                       # average WriteReq mshr miss latency ((Tick/Count))
board.cache_hierarchy.clusters.l1dcache.power_state.pwrStateResidencyTicks::UNDEFINED 589150341585                       # Cumulative time (in ticks) in various power states (Tick)
board.cache_hierarchy.clusters.l1dcache.tags.tagsInUse          512                       # Average ticks per tags in use ((Tick/Count))
board.cache_hierarchy.clusters.l1dcache.tags.totalRefs    115079161                       # Total number of references to valid blocks. (Count)
board.cache_hierarchy.clusters.l1dcache.tags.sampledRefs      5522873                       # Sample count of references to valid blocks. (Count)
board.cache_hierarchy.clusters.l1dcache.tags.avgRefs    20.836829                       # Average number of references to valid blocks. ((Count/Count))
board.cache_hierarchy.clusters.l1dcache.tags.warmupTick            0                       # The tick when the warmup percentage was hit. (Tick)
board.cache_hierarchy.clusters.l1dcache.tags.occupancies::processor.cores.core.data          512                       # Average occupied blocks per tick, per requestor ((Count/Tick))
board.cache_hierarchy.clusters.l1dcache.tags.avgOccs::processor.cores.core.data            1                       # Average percentage of cache occupancy ((Ratio/Tick))
board.cache_hierarchy.clusters.l1dcache.tags.avgOccs::total            1                       # Average percentage of cache occupancy ((Ratio/Tick))
board.cache_hierarchy.clusters.l1dcache.tags.occupanciesTaskId::1024          512                       # Occupied blocks per task id (Count)
board.cache_hierarchy.clusters.l1dcache.tags.ageTaskId_1024::0           79                       # Occupied blocks per task id, per block age (Count)
board.cache_hierarchy.clusters.l1dcache.tags.ageTaskId_1024::1          432                       # Occupied blocks per task id, per block age (Count)
board.cache_hierarchy.clusters.l1dcache.tags.ageTaskId_1024::3            1                       # Occupied blocks per task id, per block age (Count)
board.cache_hierarchy.clusters.l1dcache.tags.ratioOccsTaskId::1024            1                       # Ratio of occupied blocks and all blocks, per task id (Ratio)
board.cache_hierarchy.clusters.l1dcache.tags.tagAccesses   1063944329                       # Number of tag accesses (Count)
board.cache_hierarchy.clusters.l1dcache.tags.dataAccesses   1063944329                       # Number of data accesses (Count)
board.cache_hierarchy.clusters.l1dcache.tags.power_state.pwrStateResidencyTicks::UNDEFINED 589150341585                       # Cumulative time (in ticks) in various power states (Tick)
board.cache_hierarchy.clusters.l1icache.demandHits::processor.cores.core.inst     32946347                       # number of demand (read+write) hits (Count)
board.cache_hierarchy.clusters.l1icache.demandHits::total     32946347                       # number of demand (read+write) hits (Count)
board.cache_hierarchy.clusters.l1icache.overallHits::processor.cores.core.inst     32946347                       # number of overall hits (Count)
board.cache_hierarchy.clusters.l1icache.overallHits::total     32946347                       # number of overall hits (Count)
board.cache_hierarchy.clusters.l1icache.demandMisses::processor.cores.core.inst         2085                       # number of demand (read+write) misses (Count)
board.cache_hierarchy.clusters.l1icache.demandMisses::total         2085                       # number of demand (read+write) misses (Count)
board.cache_hierarchy.clusters.l1icache.overallMisses::processor.cores.core.inst         2085                       # number of overall misses (Count)
board.cache_hierarchy.clusters.l1icache.overallMisses::total         2085                       # number of overall misses (Count)
board.cache_hierarchy.clusters.l1icache.demandMissLatency::processor.cores.core.inst     48929675                       # number of demand (read+write) miss ticks (Tick)
board.cache_hierarchy.clusters.l1icache.demandMissLatency::total     48929675                       # number of demand (read+write) miss ticks (Tick)
board.cache_hierarchy.clusters.l1icache.overallMissLatency::processor.cores.core.inst     48929675                       # number of overall miss ticks (Tick)
board.cache_hierarchy.clusters.l1icache.overallMissLatency::total     48929675                       # number of overall miss ticks (Tick)
board.cache_hierarchy.clusters.l1icache.demandAccesses::processor.cores.core.inst     32948432                       # number of demand (read+write) accesses (Count)
board.cache_hierarchy.clusters.l1icache.demandAccesses::total     32948432                       # number of demand (read+write) accesses (Count)
board.cache_hierarchy.clusters.l1icache.overallAccesses::processor.cores.core.inst     32948432                       # number of overall (read+write) accesses (Count)
board.cache_hierarchy.clusters.l1icache.overallAccesses::total     32948432                       # number of overall (read+write) accesses (Count)
board.cache_hierarchy.clusters.l1icache.demandMissRate::processor.cores.core.inst     0.000063                       # miss rate for demand accesses (Ratio)
board.cache_hierarchy.clusters.l1icache.demandMissRate::total     0.000063                       # miss rate for demand accesses (Ratio)
board.cache_hierarchy.clusters.l1icache.overallMissRate::processor.cores.core.inst     0.000063                       # miss rate for overall accesses (Ratio)
board.cache_hierarchy.clusters.l1icache.overallMissRate::total     0.000063                       # miss rate for overall accesses (Ratio)
board.cache_hierarchy.clusters.l1icache.demandAvgMissLatency::processor.cores.core.inst 23467.470024                       # average overall miss latency in ticks ((Tick/Count))
board.cache_hierarchy.clusters.l1icache.demandAvgMissLatency::total 23467.470024                       # average overall miss latency in ticks ((Tick/Count))
board.cache_hierarchy.clusters.l1icache.overallAvgMissLatency::processor.cores.core.inst 23467.470024                       # average overall miss latency ((Tick/Count))
board.cache_hierarchy.clusters.l1icache.overallAvgMissLatency::total 23467.470024                       # average overall miss latency ((Tick/Count))
board.cache_hierarchy.clusters.l1icache.blockedCycles::no_mshrs         1243                       # number of cycles access was blocked (Cycle)
board.cache_hierarchy.clusters.l1icache.blockedCycles::no_targets        17787                       # number of cycles access was blocked (Cycle)
board.cache_hierarchy.clusters.l1icache.blockedCauses::no_mshrs           25                       # number of times access was blocked (Count)
board.cache_hierarchy.clusters.l1icache.blockedCauses::no_targets          193                       # number of times access was blocked (Count)
board.cache_hierarchy.clusters.l1icache.avgBlocked::no_mshrs    49.720000                       # average number of cycles each access was blocked ((Cycle/Count))
board.cache_hierarchy.clusters.l1icache.avgBlocked::no_targets    92.160622                       # average number of cycles each access was blocked ((Cycle/Count))
board.cache_hierarchy.clusters.l1icache.demandMshrHits::processor.cores.core.inst          193                       # number of demand (read+write) MSHR hits (Count)
board.cache_hierarchy.clusters.l1icache.demandMshrHits::total          193                       # number of demand (read+write) MSHR hits (Count)
board.cache_hierarchy.clusters.l1icache.overallMshrHits::processor.cores.core.inst          193                       # number of overall MSHR hits (Count)
board.cache_hierarchy.clusters.l1icache.overallMshrHits::total          193                       # number of overall MSHR hits (Count)
board.cache_hierarchy.clusters.l1icache.demandMshrMisses::processor.cores.core.inst         1892                       # number of demand (read+write) MSHR misses (Count)
board.cache_hierarchy.clusters.l1icache.demandMshrMisses::total         1892                       # number of demand (read+write) MSHR misses (Count)
board.cache_hierarchy.clusters.l1icache.overallMshrMisses::processor.cores.core.inst         1892                       # number of overall MSHR misses (Count)
board.cache_hierarchy.clusters.l1icache.overallMshrMisses::total         1892                       # number of overall MSHR misses (Count)
board.cache_hierarchy.clusters.l1icache.demandMshrMissLatency::processor.cores.core.inst     42311967                       # number of demand (read+write) MSHR miss ticks (Tick)
board.cache_hierarchy.clusters.l1icache.demandMshrMissLatency::total     42311967                       # number of demand (read+write) MSHR miss ticks (Tick)
board.cache_hierarchy.clusters.l1icache.overallMshrMissLatency::processor.cores.core.inst     42311967                       # number of overall MSHR miss ticks (Tick)
board.cache_hierarchy.clusters.l1icache.overallMshrMissLatency::total     42311967                       # number of overall MSHR miss ticks (Tick)
board.cache_hierarchy.clusters.l1icache.demandMshrMissRate::processor.cores.core.inst     0.000057                       # mshr miss ratio for demand accesses (Ratio)
board.cache_hierarchy.clusters.l1icache.demandMshrMissRate::total     0.000057                       # mshr miss ratio for demand accesses (Ratio)
board.cache_hierarchy.clusters.l1icache.overallMshrMissRate::processor.cores.core.inst     0.000057                       # mshr miss ratio for overall accesses (Ratio)
board.cache_hierarchy.clusters.l1icache.overallMshrMissRate::total     0.000057                       # mshr miss ratio for overall accesses (Ratio)
board.cache_hierarchy.clusters.l1icache.demandAvgMshrMissLatency::processor.cores.core.inst 22363.618922                       # average overall mshr miss latency ((Tick/Count))
board.cache_hierarchy.clusters.l1icache.demandAvgMshrMissLatency::total 22363.618922                       # average overall mshr miss latency ((Tick/Count))
board.cache_hierarchy.clusters.l1icache.overallAvgMshrMissLatency::processor.cores.core.inst 22363.618922                       # average overall mshr miss latency ((Tick/Count))
board.cache_hierarchy.clusters.l1icache.overallAvgMshrMissLatency::total 22363.618922                       # average overall mshr miss latency ((Tick/Count))
board.cache_hierarchy.clusters.l1icache.replacements         1846                       # number of replacements (Count)
board.cache_hierarchy.clusters.l1icache.ReadReq.hits::processor.cores.core.inst     32946347                       # number of ReadReq hits (Count)
board.cache_hierarchy.clusters.l1icache.ReadReq.hits::total     32946347                       # number of ReadReq hits (Count)
board.cache_hierarchy.clusters.l1icache.ReadReq.misses::processor.cores.core.inst         2085                       # number of ReadReq misses (Count)
board.cache_hierarchy.clusters.l1icache.ReadReq.misses::total         2085                       # number of ReadReq misses (Count)
board.cache_hierarchy.clusters.l1icache.ReadReq.missLatency::processor.cores.core.inst     48929675                       # number of ReadReq miss ticks (Tick)
board.cache_hierarchy.clusters.l1icache.ReadReq.missLatency::total     48929675                       # number of ReadReq miss ticks (Tick)
board.cache_hierarchy.clusters.l1icache.ReadReq.accesses::processor.cores.core.inst     32948432                       # number of ReadReq accesses(hits+misses) (Count)
board.cache_hierarchy.clusters.l1icache.ReadReq.accesses::total     32948432                       # number of ReadReq accesses(hits+misses) (Count)
board.cache_hierarchy.clusters.l1icache.ReadReq.missRate::processor.cores.core.inst     0.000063                       # miss rate for ReadReq accesses (Ratio)
board.cache_hierarchy.clusters.l1icache.ReadReq.missRate::total     0.000063                       # miss rate for ReadReq accesses (Ratio)
board.cache_hierarchy.clusters.l1icache.ReadReq.avgMissLatency::processor.cores.core.inst 23467.470024                       # average ReadReq miss latency ((Tick/Count))
board.cache_hierarchy.clusters.l1icache.ReadReq.avgMissLatency::total 23467.470024                       # average ReadReq miss latency ((Tick/Count))
board.cache_hierarchy.clusters.l1icache.ReadReq.mshrHits::processor.cores.core.inst          193                       # number of ReadReq MSHR hits (Count)
board.cache_hierarchy.clusters.l1icache.ReadReq.mshrHits::total          193                       # number of ReadReq MSHR hits (Count)
board.cache_hierarchy.clusters.l1icache.ReadReq.mshrMisses::processor.cores.core.inst         1892                       # number of ReadReq MSHR misses (Count)
board.cache_hierarchy.clusters.l1icache.ReadReq.mshrMisses::total         1892                       # number of ReadReq MSHR misses (Count)
board.cache_hierarchy.clusters.l1icache.ReadReq.mshrMissLatency::processor.cores.core.inst     42311967                       # number of ReadReq MSHR miss ticks (Tick)
board.cache_hierarchy.clusters.l1icache.ReadReq.mshrMissLatency::total     42311967                       # number of ReadReq MSHR miss ticks (Tick)
board.cache_hierarchy.clusters.l1icache.ReadReq.mshrMissRate::processor.cores.core.inst     0.000057                       # mshr miss rate for ReadReq accesses (Ratio)
board.cache_hierarchy.clusters.l1icache.ReadReq.mshrMissRate::total     0.000057                       # mshr miss rate for ReadReq accesses (Ratio)
board.cache_hierarchy.clusters.l1icache.ReadReq.avgMshrMissLatency::processor.cores.core.inst 22363.618922                       # average ReadReq mshr miss latency ((Tick/Count))
board.cache_hierarchy.clusters.l1icache.ReadReq.avgMshrMissLatency::total 22363.618922                       # average ReadReq mshr miss latency ((Tick/Count))
board.cache_hierarchy.clusters.l1icache.power_state.pwrStateResidencyTicks::UNDEFINED 589150341585                       # Cumulative time (in ticks) in various power states (Tick)
board.cache_hierarchy.clusters.l1icache.tags.tagsInUse   471.167763                       # Average ticks per tags in use ((Tick/Count))
board.cache_hierarchy.clusters.l1icache.tags.totalRefs    132006046                       # Total number of references to valid blocks. (Count)
board.cache_hierarchy.clusters.l1icache.tags.sampledRefs         2360                       # Sample count of references to valid blocks. (Count)
board.cache_hierarchy.clusters.l1icache.tags.avgRefs 55934.765254                       # Average number of references to valid blocks. ((Count/Count))
board.cache_hierarchy.clusters.l1icache.tags.warmupTick            0                       # The tick when the warmup percentage was hit. (Tick)
board.cache_hierarchy.clusters.l1icache.tags.occupancies::processor.cores.core.inst   471.167763                       # Average occupied blocks per tick, per requestor ((Count/Tick))
board.cache_hierarchy.clusters.l1icache.tags.avgOccs::processor.cores.core.inst     0.920250                       # Average percentage of cache occupancy ((Ratio/Tick))
board.cache_hierarchy.clusters.l1icache.tags.avgOccs::total     0.920250                       # Average percentage of cache occupancy ((Ratio/Tick))
board.cache_hierarchy.clusters.l1icache.tags.occupanciesTaskId::1024          512                       # Occupied blocks per task id (Count)
board.cache_hierarchy.clusters.l1icache.tags.ageTaskId_1024::0          117                       # Occupied blocks per task id, per block age (Count)
board.cache_hierarchy.clusters.l1icache.tags.ageTaskId_1024::1          330                       # Occupied blocks per task id, per block age (Count)
board.cache_hierarchy.clusters.l1icache.tags.ageTaskId_1024::4           65                       # Occupied blocks per task id, per block age (Count)
board.cache_hierarchy.clusters.l1icache.tags.ratioOccsTaskId::1024            1                       # Ratio of occupied blocks and all blocks, per task id (Ratio)
board.cache_hierarchy.clusters.l1icache.tags.tagAccesses    263589348                       # Number of tag accesses (Count)
board.cache_hierarchy.clusters.l1icache.tags.dataAccesses    263589348                       # Number of data accesses (Count)
board.cache_hierarchy.clusters.l1icache.tags.power_state.pwrStateResidencyTicks::UNDEFINED 589150341585                       # Cumulative time (in ticks) in various power states (Tick)
board.cache_hierarchy.clusters.l2_bus.transDist::ReadResp      4800742                       # Transaction distribution (Count)
board.cache_hierarchy.clusters.l2_bus.transDist::WritebackDirty      6282518                       # Transaction distribution (Count)
board.cache_hierarchy.clusters.l2_bus.transDist::CleanEvict      2662783                       # Transaction distribution (Count)
board.cache_hierarchy.clusters.l2_bus.transDist::UpgradeReq       647735                       # Transaction distribution (Count)
board.cache_hierarchy.clusters.l2_bus.transDist::UpgradeResp       647735                       # Transaction distribution (Count)
board.cache_hierarchy.clusters.l2_bus.transDist::ReadExReq       723511                       # Transaction distribution (Count)
board.cache_hierarchy.clusters.l2_bus.transDist::ReadExResp       723511                       # Transaction distribution (Count)
board.cache_hierarchy.clusters.l2_bus.transDist::ReadCleanReq         1892                       # Transaction distribution (Count)
board.cache_hierarchy.clusters.l2_bus.transDist::ReadSharedReq      4798850                       # Transaction distribution (Count)
board.cache_hierarchy.clusters.l2_bus.pktCount_board.cache_hierarchy.clusters.l1dcache.mem_side_port::board.cache_hierarchy.clusters.l2cache.cpu_side_port     17862553                       # Packet count per connected requestor and responder (Count)
board.cache_hierarchy.clusters.l2_bus.pktCount_board.cache_hierarchy.clusters.l1icache.mem_side_port::board.cache_hierarchy.clusters.l2cache.cpu_side_port         5625                       # Packet count per connected requestor and responder (Count)
board.cache_hierarchy.clusters.l2_bus.pktCount::total     17868178                       # Packet count per connected requestor and responder (Count)
board.cache_hierarchy.clusters.l2_bus.pktSize_board.cache_hierarchy.clusters.l1dcache.mem_side_port::board.cache_hierarchy.clusters.l2cache.cpu_side_port    570694144                       # Cumulative packet size per connected requestor and responder (Byte)
board.cache_hierarchy.clusters.l2_bus.pktSize_board.cache_hierarchy.clusters.l1icache.mem_side_port::board.cache_hierarchy.clusters.l2cache.cpu_side_port       120768                       # Cumulative packet size per connected requestor and responder (Byte)
board.cache_hierarchy.clusters.l2_bus.pktSize::total    570814912                       # Cumulative packet size per connected requestor and responder (Byte)
board.cache_hierarchy.clusters.l2_bus.snoops      3421099                       # Total snoops (Count)
board.cache_hierarchy.clusters.l2_bus.snoopTraffic    184818432                       # Total snoop traffic (Byte)
board.cache_hierarchy.clusters.l2_bus.snoopFanout::samples      9593326                       # Request fanout histogram (Count)
board.cache_hierarchy.clusters.l2_bus.snoopFanout::mean     0.000053                       # Request fanout histogram (Count)
board.cache_hierarchy.clusters.l2_bus.snoopFanout::stdev     0.007284                       # Request fanout histogram (Count)
board.cache_hierarchy.clusters.l2_bus.snoopFanout::underflows            0      0.00%      0.00% # Request fanout histogram (Count)
board.cache_hierarchy.clusters.l2_bus.snoopFanout::0      9592817     99.99%     99.99% # Request fanout histogram (Count)
board.cache_hierarchy.clusters.l2_bus.snoopFanout::1          509      0.01%    100.00% # Request fanout histogram (Count)
board.cache_hierarchy.clusters.l2_bus.snoopFanout::2            0      0.00%    100.00% # Request fanout histogram (Count)
board.cache_hierarchy.clusters.l2_bus.snoopFanout::3            0      0.00%    100.00% # Request fanout histogram (Count)
board.cache_hierarchy.clusters.l2_bus.snoopFanout::4            0      0.00%    100.00% # Request fanout histogram (Count)
board.cache_hierarchy.clusters.l2_bus.snoopFanout::overflows            0      0.00%    100.00% # Request fanout histogram (Count)
board.cache_hierarchy.clusters.l2_bus.snoopFanout::min_value            0                       # Request fanout histogram (Count)
board.cache_hierarchy.clusters.l2_bus.snoopFanout::max_value            1                       # Request fanout histogram (Count)
board.cache_hierarchy.clusters.l2_bus.snoopFanout::total      9593326                       # Request fanout histogram (Count)
board.cache_hierarchy.clusters.l2_bus.power_state.pwrStateResidencyTicks::UNDEFINED 589150341585                       # Cumulative time (in ticks) in various power states (Tick)
board.cache_hierarchy.clusters.l2_bus.reqLayer0.occupancy   6155937752                       # Layer occupancy (ticks) (Tick)
board.cache_hierarchy.clusters.l2_bus.reqLayer0.utilization          0.2                       # Layer utilization (Ratio)
board.cache_hierarchy.clusters.l2_bus.respLayer0.occupancy   5732536054                       # Layer occupancy (ticks) (Tick)
board.cache_hierarchy.clusters.l2_bus.respLayer0.utilization          0.2                       # Layer utilization (Ratio)
board.cache_hierarchy.clusters.l2_bus.respLayer1.occupancy      1891436                       # Layer occupancy (ticks) (Tick)
board.cache_hierarchy.clusters.l2_bus.respLayer1.utilization          0.0                       # Layer utilization (Ratio)
board.cache_hierarchy.clusters.l2_bus.snoop_filter.totRequests     11696682                       # Total number of requests made to the snoop filter. (Count)
board.cache_hierarchy.clusters.l2_bus.snoop_filter.hitSingleRequests      6172247                       # Number of requests hitting in the snoop filter with a single holder of the requested data. (Count)
board.cache_hierarchy.clusters.l2_bus.snoop_filter.hitMultiRequests            5                       # Number of requests hitting in the snoop filter with multiple (>1) holders of the requested data. (Count)
board.cache_hierarchy.clusters.l2_bus.snoop_filter.totSnoops          497                       # Total number of snoops made to the snoop filter. (Count)
board.cache_hierarchy.clusters.l2_bus.snoop_filter.hitSingleSnoops          497                       # Number of snoops hitting in the snoop filter with a single holder of the requested data. (Count)
board.cache_hierarchy.clusters.l2_bus.snoop_filter.hitMultiSnoops            0                       # Number of snoops hitting in the snoop filter with multiple (>1) holders of the requested data. (Count)
board.cache_hierarchy.clusters.l2cache.demandHits::processor.cores.core.inst          855                       # number of demand (read+write) hits (Count)
board.cache_hierarchy.clusters.l2cache.demandHits::processor.cores.core.data      2102555                       # number of demand (read+write) hits (Count)
board.cache_hierarchy.clusters.l2cache.demandHits::total      2103410                       # number of demand (read+write) hits (Count)
board.cache_hierarchy.clusters.l2cache.overallHits::processor.cores.core.inst          855                       # number of overall hits (Count)
board.cache_hierarchy.clusters.l2cache.overallHits::processor.cores.core.data      2102555                       # number of overall hits (Count)
board.cache_hierarchy.clusters.l2cache.overallHits::total      2103410                       # number of overall hits (Count)
board.cache_hierarchy.clusters.l2cache.demandMisses::processor.cores.core.inst         1032                       # number of demand (read+write) misses (Count)
board.cache_hierarchy.clusters.l2cache.demandMisses::processor.cores.core.data      3419806                       # number of demand (read+write) misses (Count)
board.cache_hierarchy.clusters.l2cache.demandMisses::total      3420838                       # number of demand (read+write) misses (Count)
board.cache_hierarchy.clusters.l2cache.overallMisses::processor.cores.core.inst         1032                       # number of overall misses (Count)
board.cache_hierarchy.clusters.l2cache.overallMisses::processor.cores.core.data      3419806                       # number of overall misses (Count)
board.cache_hierarchy.clusters.l2cache.overallMisses::total      3420838                       # number of overall misses (Count)
board.cache_hierarchy.clusters.l2cache.demandMissLatency::processor.cores.core.inst     39032262                       # number of demand (read+write) miss ticks (Tick)
board.cache_hierarchy.clusters.l2cache.demandMissLatency::processor.cores.core.data  33237907078                       # number of demand (read+write) miss ticks (Tick)
board.cache_hierarchy.clusters.l2cache.demandMissLatency::total  33276939340                       # number of demand (read+write) miss ticks (Tick)
board.cache_hierarchy.clusters.l2cache.overallMissLatency::processor.cores.core.inst     39032262                       # number of overall miss ticks (Tick)
board.cache_hierarchy.clusters.l2cache.overallMissLatency::processor.cores.core.data  33237907078                       # number of overall miss ticks (Tick)
board.cache_hierarchy.clusters.l2cache.overallMissLatency::total  33276939340                       # number of overall miss ticks (Tick)
board.cache_hierarchy.clusters.l2cache.demandAccesses::processor.cores.core.inst         1887                       # number of demand (read+write) accesses (Count)
board.cache_hierarchy.clusters.l2cache.demandAccesses::processor.cores.core.data      5522361                       # number of demand (read+write) accesses (Count)
board.cache_hierarchy.clusters.l2cache.demandAccesses::total      5524248                       # number of demand (read+write) accesses (Count)
board.cache_hierarchy.clusters.l2cache.overallAccesses::processor.cores.core.inst         1887                       # number of overall (read+write) accesses (Count)
board.cache_hierarchy.clusters.l2cache.overallAccesses::processor.cores.core.data      5522361                       # number of overall (read+write) accesses (Count)
board.cache_hierarchy.clusters.l2cache.overallAccesses::total      5524248                       # number of overall (read+write) accesses (Count)
board.cache_hierarchy.clusters.l2cache.demandMissRate::processor.cores.core.inst     0.546900                       # miss rate for demand accesses (Ratio)
board.cache_hierarchy.clusters.l2cache.demandMissRate::processor.cores.core.data     0.619265                       # miss rate for demand accesses (Ratio)
board.cache_hierarchy.clusters.l2cache.demandMissRate::total     0.619240                       # miss rate for demand accesses (Ratio)
board.cache_hierarchy.clusters.l2cache.overallMissRate::processor.cores.core.inst     0.546900                       # miss rate for overall accesses (Ratio)
board.cache_hierarchy.clusters.l2cache.overallMissRate::processor.cores.core.data     0.619265                       # miss rate for overall accesses (Ratio)
board.cache_hierarchy.clusters.l2cache.overallMissRate::total     0.619240                       # miss rate for overall accesses (Ratio)
board.cache_hierarchy.clusters.l2cache.demandAvgMissLatency::processor.cores.core.inst 37821.959302                       # average overall miss latency in ticks ((Tick/Count))
board.cache_hierarchy.clusters.l2cache.demandAvgMissLatency::processor.cores.core.data  9719.237605                       # average overall miss latency in ticks ((Tick/Count))
board.cache_hierarchy.clusters.l2cache.demandAvgMissLatency::total  9727.715647                       # average overall miss latency in ticks ((Tick/Count))
board.cache_hierarchy.clusters.l2cache.overallAvgMissLatency::processor.cores.core.inst 37821.959302                       # average overall miss latency ((Tick/Count))
board.cache_hierarchy.clusters.l2cache.overallAvgMissLatency::processor.cores.core.data  9719.237605                       # average overall miss latency ((Tick/Count))
board.cache_hierarchy.clusters.l2cache.overallAvgMissLatency::total  9727.715647                       # average overall miss latency ((Tick/Count))
board.cache_hierarchy.clusters.l2cache.blockedCycles::no_mshrs            0                       # number of cycles access was blocked (Cycle)
board.cache_hierarchy.clusters.l2cache.blockedCycles::no_targets            0                       # number of cycles access was blocked (Cycle)
board.cache_hierarchy.clusters.l2cache.blockedCauses::no_mshrs            0                       # number of times access was blocked (Count)
board.cache_hierarchy.clusters.l2cache.blockedCauses::no_targets            0                       # number of times access was blocked (Count)
board.cache_hierarchy.clusters.l2cache.avgBlocked::no_mshrs          nan                       # average number of cycles each access was blocked ((Cycle/Count))
board.cache_hierarchy.clusters.l2cache.avgBlocked::no_targets          nan                       # average number of cycles each access was blocked ((Cycle/Count))
board.cache_hierarchy.clusters.l2cache.writebacks::writebacks      2887783                       # number of writebacks (Count)
board.cache_hierarchy.clusters.l2cache.writebacks::total      2887783                       # number of writebacks (Count)
board.cache_hierarchy.clusters.l2cache.demandMshrMisses::processor.cores.core.inst         1032                       # number of demand (read+write) MSHR misses (Count)
board.cache_hierarchy.clusters.l2cache.demandMshrMisses::processor.cores.core.data      3419806                       # number of demand (read+write) MSHR misses (Count)
board.cache_hierarchy.clusters.l2cache.demandMshrMisses::total      3420838                       # number of demand (read+write) MSHR misses (Count)
board.cache_hierarchy.clusters.l2cache.overallMshrMisses::processor.cores.core.inst         1032                       # number of overall MSHR misses (Count)
board.cache_hierarchy.clusters.l2cache.overallMshrMisses::processor.cores.core.data      3419806                       # number of overall MSHR misses (Count)
board.cache_hierarchy.clusters.l2cache.overallMshrMisses::total      3420838                       # number of overall MSHR misses (Count)
board.cache_hierarchy.clusters.l2cache.demandMshrMissLatency::processor.cores.core.inst     38001294                       # number of demand (read+write) MSHR miss ticks (Tick)
board.cache_hierarchy.clusters.l2cache.demandMshrMissLatency::processor.cores.core.data  29821520884                       # number of demand (read+write) MSHR miss ticks (Tick)
board.cache_hierarchy.clusters.l2cache.demandMshrMissLatency::total  29859522178                       # number of demand (read+write) MSHR miss ticks (Tick)
board.cache_hierarchy.clusters.l2cache.overallMshrMissLatency::processor.cores.core.inst     38001294                       # number of overall MSHR miss ticks (Tick)
board.cache_hierarchy.clusters.l2cache.overallMshrMissLatency::processor.cores.core.data  29821520884                       # number of overall MSHR miss ticks (Tick)
board.cache_hierarchy.clusters.l2cache.overallMshrMissLatency::total  29859522178                       # number of overall MSHR miss ticks (Tick)
board.cache_hierarchy.clusters.l2cache.demandMshrMissRate::processor.cores.core.inst     0.546900                       # mshr miss ratio for demand accesses (Ratio)
board.cache_hierarchy.clusters.l2cache.demandMshrMissRate::processor.cores.core.data     0.619265                       # mshr miss ratio for demand accesses (Ratio)
board.cache_hierarchy.clusters.l2cache.demandMshrMissRate::total     0.619240                       # mshr miss ratio for demand accesses (Ratio)
board.cache_hierarchy.clusters.l2cache.overallMshrMissRate::processor.cores.core.inst     0.546900                       # mshr miss ratio for overall accesses (Ratio)
board.cache_hierarchy.clusters.l2cache.overallMshrMissRate::processor.cores.core.data     0.619265                       # mshr miss ratio for overall accesses (Ratio)
board.cache_hierarchy.clusters.l2cache.overallMshrMissRate::total     0.619240                       # mshr miss ratio for overall accesses (Ratio)
board.cache_hierarchy.clusters.l2cache.demandAvgMshrMissLatency::processor.cores.core.inst 36822.959302                       # average overall mshr miss latency ((Tick/Count))
board.cache_hierarchy.clusters.l2cache.demandAvgMshrMissLatency::processor.cores.core.data  8720.237605                       # average overall mshr miss latency ((Tick/Count))
board.cache_hierarchy.clusters.l2cache.demandAvgMshrMissLatency::total  8728.715647                       # average overall mshr miss latency ((Tick/Count))
board.cache_hierarchy.clusters.l2cache.overallAvgMshrMissLatency::processor.cores.core.inst 36822.959302                       # average overall mshr miss latency ((Tick/Count))
board.cache_hierarchy.clusters.l2cache.overallAvgMshrMissLatency::processor.cores.core.data  8720.237605                       # average overall mshr miss latency ((Tick/Count))
board.cache_hierarchy.clusters.l2cache.overallAvgMshrMissLatency::total  8728.715647                       # average overall mshr miss latency ((Tick/Count))
board.cache_hierarchy.clusters.l2cache.replacements      3421094                       # number of replacements (Count)
board.cache_hierarchy.clusters.l2cache.CleanEvict.mshrMisses::writebacks          625                       # number of CleanEvict MSHR misses (Count)
board.cache_hierarchy.clusters.l2cache.CleanEvict.mshrMisses::total          625                       # number of CleanEvict MSHR misses (Count)
board.cache_hierarchy.clusters.l2cache.CleanEvict.mshrMissRate::writebacks          inf                       # mshr miss rate for CleanEvict accesses (Ratio)
board.cache_hierarchy.clusters.l2cache.CleanEvict.mshrMissRate::total          inf                       # mshr miss rate for CleanEvict accesses (Ratio)
board.cache_hierarchy.clusters.l2cache.ReadCleanReq.hits::processor.cores.core.inst          855                       # number of ReadCleanReq hits (Count)
board.cache_hierarchy.clusters.l2cache.ReadCleanReq.hits::total          855                       # number of ReadCleanReq hits (Count)
board.cache_hierarchy.clusters.l2cache.ReadCleanReq.misses::processor.cores.core.inst         1032                       # number of ReadCleanReq misses (Count)
board.cache_hierarchy.clusters.l2cache.ReadCleanReq.misses::total         1032                       # number of ReadCleanReq misses (Count)
board.cache_hierarchy.clusters.l2cache.ReadCleanReq.missLatency::processor.cores.core.inst     39032262                       # number of ReadCleanReq miss ticks (Tick)
board.cache_hierarchy.clusters.l2cache.ReadCleanReq.missLatency::total     39032262                       # number of ReadCleanReq miss ticks (Tick)
board.cache_hierarchy.clusters.l2cache.ReadCleanReq.accesses::processor.cores.core.inst         1887                       # number of ReadCleanReq accesses(hits+misses) (Count)
board.cache_hierarchy.clusters.l2cache.ReadCleanReq.accesses::total         1887                       # number of ReadCleanReq accesses(hits+misses) (Count)
board.cache_hierarchy.clusters.l2cache.ReadCleanReq.missRate::processor.cores.core.inst     0.546900                       # miss rate for ReadCleanReq accesses (Ratio)
board.cache_hierarchy.clusters.l2cache.ReadCleanReq.missRate::total     0.546900                       # miss rate for ReadCleanReq accesses (Ratio)
board.cache_hierarchy.clusters.l2cache.ReadCleanReq.avgMissLatency::processor.cores.core.inst 37821.959302                       # average ReadCleanReq miss latency ((Tick/Count))
board.cache_hierarchy.clusters.l2cache.ReadCleanReq.avgMissLatency::total 37821.959302                       # average ReadCleanReq miss latency ((Tick/Count))
board.cache_hierarchy.clusters.l2cache.ReadCleanReq.mshrMisses::processor.cores.core.inst         1032                       # number of ReadCleanReq MSHR misses (Count)
board.cache_hierarchy.clusters.l2cache.ReadCleanReq.mshrMisses::total         1032                       # number of ReadCleanReq MSHR misses (Count)
board.cache_hierarchy.clusters.l2cache.ReadCleanReq.mshrMissLatency::processor.cores.core.inst     38001294                       # number of ReadCleanReq MSHR miss ticks (Tick)
board.cache_hierarchy.clusters.l2cache.ReadCleanReq.mshrMissLatency::total     38001294                       # number of ReadCleanReq MSHR miss ticks (Tick)
board.cache_hierarchy.clusters.l2cache.ReadCleanReq.mshrMissRate::processor.cores.core.inst     0.546900                       # mshr miss rate for ReadCleanReq accesses (Ratio)
board.cache_hierarchy.clusters.l2cache.ReadCleanReq.mshrMissRate::total     0.546900                       # mshr miss rate for ReadCleanReq accesses (Ratio)
board.cache_hierarchy.clusters.l2cache.ReadCleanReq.avgMshrMissLatency::processor.cores.core.inst 36822.959302                       # average ReadCleanReq mshr miss latency ((Tick/Count))
board.cache_hierarchy.clusters.l2cache.ReadCleanReq.avgMshrMissLatency::total 36822.959302                       # average ReadCleanReq mshr miss latency ((Tick/Count))
board.cache_hierarchy.clusters.l2cache.ReadExReq.hits::processor.cores.core.data        78397                       # number of ReadExReq hits (Count)
board.cache_hierarchy.clusters.l2cache.ReadExReq.hits::total        78397                       # number of ReadExReq hits (Count)
board.cache_hierarchy.clusters.l2cache.ReadExReq.misses::processor.cores.core.data       645114                       # number of ReadExReq misses (Count)
board.cache_hierarchy.clusters.l2cache.ReadExReq.misses::total       645114                       # number of ReadExReq misses (Count)
board.cache_hierarchy.clusters.l2cache.ReadExReq.missLatency::processor.cores.core.data   6267638421                       # number of ReadExReq miss ticks (Tick)
board.cache_hierarchy.clusters.l2cache.ReadExReq.missLatency::total   6267638421                       # number of ReadExReq miss ticks (Tick)
board.cache_hierarchy.clusters.l2cache.ReadExReq.accesses::processor.cores.core.data       723511                       # number of ReadExReq accesses(hits+misses) (Count)
board.cache_hierarchy.clusters.l2cache.ReadExReq.accesses::total       723511                       # number of ReadExReq accesses(hits+misses) (Count)
board.cache_hierarchy.clusters.l2cache.ReadExReq.missRate::processor.cores.core.data     0.891644                       # miss rate for ReadExReq accesses (Ratio)
board.cache_hierarchy.clusters.l2cache.ReadExReq.missRate::total     0.891644                       # miss rate for ReadExReq accesses (Ratio)
board.cache_hierarchy.clusters.l2cache.ReadExReq.avgMissLatency::processor.cores.core.data  9715.551702                       # average ReadExReq miss latency ((Tick/Count))
board.cache_hierarchy.clusters.l2cache.ReadExReq.avgMissLatency::total  9715.551702                       # average ReadExReq miss latency ((Tick/Count))
board.cache_hierarchy.clusters.l2cache.ReadExReq.mshrMisses::processor.cores.core.data       645114                       # number of ReadExReq MSHR misses (Count)
board.cache_hierarchy.clusters.l2cache.ReadExReq.mshrMisses::total       645114                       # number of ReadExReq MSHR misses (Count)
board.cache_hierarchy.clusters.l2cache.ReadExReq.mshrMissLatency::processor.cores.core.data   5623169535                       # number of ReadExReq MSHR miss ticks (Tick)
board.cache_hierarchy.clusters.l2cache.ReadExReq.mshrMissLatency::total   5623169535                       # number of ReadExReq MSHR miss ticks (Tick)
board.cache_hierarchy.clusters.l2cache.ReadExReq.mshrMissRate::processor.cores.core.data     0.891644                       # mshr miss rate for ReadExReq accesses (Ratio)
board.cache_hierarchy.clusters.l2cache.ReadExReq.mshrMissRate::total     0.891644                       # mshr miss rate for ReadExReq accesses (Ratio)
board.cache_hierarchy.clusters.l2cache.ReadExReq.avgMshrMissLatency::processor.cores.core.data  8716.551702                       # average ReadExReq mshr miss latency ((Tick/Count))
board.cache_hierarchy.clusters.l2cache.ReadExReq.avgMshrMissLatency::total  8716.551702                       # average ReadExReq mshr miss latency ((Tick/Count))
board.cache_hierarchy.clusters.l2cache.ReadSharedReq.hits::processor.cores.core.data      2024158                       # number of ReadSharedReq hits (Count)
board.cache_hierarchy.clusters.l2cache.ReadSharedReq.hits::total      2024158                       # number of ReadSharedReq hits (Count)
board.cache_hierarchy.clusters.l2cache.ReadSharedReq.misses::processor.cores.core.data      2774692                       # number of ReadSharedReq misses (Count)
board.cache_hierarchy.clusters.l2cache.ReadSharedReq.misses::total      2774692                       # number of ReadSharedReq misses (Count)
board.cache_hierarchy.clusters.l2cache.ReadSharedReq.missLatency::processor.cores.core.data  26970268657                       # number of ReadSharedReq miss ticks (Tick)
board.cache_hierarchy.clusters.l2cache.ReadSharedReq.missLatency::total  26970268657                       # number of ReadSharedReq miss ticks (Tick)
board.cache_hierarchy.clusters.l2cache.ReadSharedReq.accesses::processor.cores.core.data      4798850                       # number of ReadSharedReq accesses(hits+misses) (Count)
board.cache_hierarchy.clusters.l2cache.ReadSharedReq.accesses::total      4798850                       # number of ReadSharedReq accesses(hits+misses) (Count)
board.cache_hierarchy.clusters.l2cache.ReadSharedReq.missRate::processor.cores.core.data     0.578199                       # miss rate for ReadSharedReq accesses (Ratio)
board.cache_hierarchy.clusters.l2cache.ReadSharedReq.missRate::total     0.578199                       # miss rate for ReadSharedReq accesses (Ratio)
board.cache_hierarchy.clusters.l2cache.ReadSharedReq.avgMissLatency::processor.cores.core.data  9720.094575                       # average ReadSharedReq miss latency ((Tick/Count))
board.cache_hierarchy.clusters.l2cache.ReadSharedReq.avgMissLatency::total  9720.094575                       # average ReadSharedReq miss latency ((Tick/Count))
board.cache_hierarchy.clusters.l2cache.ReadSharedReq.mshrMisses::processor.cores.core.data      2774692                       # number of ReadSharedReq MSHR misses (Count)
board.cache_hierarchy.clusters.l2cache.ReadSharedReq.mshrMisses::total      2774692                       # number of ReadSharedReq MSHR misses (Count)
board.cache_hierarchy.clusters.l2cache.ReadSharedReq.mshrMissLatency::processor.cores.core.data  24198351349                       # number of ReadSharedReq MSHR miss ticks (Tick)
board.cache_hierarchy.clusters.l2cache.ReadSharedReq.mshrMissLatency::total  24198351349                       # number of ReadSharedReq MSHR miss ticks (Tick)
board.cache_hierarchy.clusters.l2cache.ReadSharedReq.mshrMissRate::processor.cores.core.data     0.578199                       # mshr miss rate for ReadSharedReq accesses (Ratio)
board.cache_hierarchy.clusters.l2cache.ReadSharedReq.mshrMissRate::total     0.578199                       # mshr miss rate for ReadSharedReq accesses (Ratio)
board.cache_hierarchy.clusters.l2cache.ReadSharedReq.avgMshrMissLatency::processor.cores.core.data  8721.094575                       # average ReadSharedReq mshr miss latency ((Tick/Count))
board.cache_hierarchy.clusters.l2cache.ReadSharedReq.avgMshrMissLatency::total  8721.094575                       # average ReadSharedReq mshr miss latency ((Tick/Count))
board.cache_hierarchy.clusters.l2cache.UpgradeReq.hits::processor.cores.core.data       647734                       # number of UpgradeReq hits (Count)
board.cache_hierarchy.clusters.l2cache.UpgradeReq.hits::total       647734                       # number of UpgradeReq hits (Count)
board.cache_hierarchy.clusters.l2cache.UpgradeReq.misses::processor.cores.core.data            1                       # number of UpgradeReq misses (Count)
board.cache_hierarchy.clusters.l2cache.UpgradeReq.misses::total            1                       # number of UpgradeReq misses (Count)
board.cache_hierarchy.clusters.l2cache.UpgradeReq.accesses::processor.cores.core.data       647735                       # number of UpgradeReq accesses(hits+misses) (Count)
board.cache_hierarchy.clusters.l2cache.UpgradeReq.accesses::total       647735                       # number of UpgradeReq accesses(hits+misses) (Count)
board.cache_hierarchy.clusters.l2cache.UpgradeReq.missRate::processor.cores.core.data     0.000002                       # miss rate for UpgradeReq accesses (Ratio)
board.cache_hierarchy.clusters.l2cache.UpgradeReq.missRate::total     0.000002                       # miss rate for UpgradeReq accesses (Ratio)
board.cache_hierarchy.clusters.l2cache.UpgradeReq.mshrMisses::processor.cores.core.data            1                       # number of UpgradeReq MSHR misses (Count)
board.cache_hierarchy.clusters.l2cache.UpgradeReq.mshrMisses::total            1                       # number of UpgradeReq MSHR misses (Count)
board.cache_hierarchy.clusters.l2cache.UpgradeReq.mshrMissLatency::processor.cores.core.data         5328                       # number of UpgradeReq MSHR miss ticks (Tick)
board.cache_hierarchy.clusters.l2cache.UpgradeReq.mshrMissLatency::total         5328                       # number of UpgradeReq MSHR miss ticks (Tick)
board.cache_hierarchy.clusters.l2cache.UpgradeReq.mshrMissRate::processor.cores.core.data     0.000002                       # mshr miss rate for UpgradeReq accesses (Ratio)
board.cache_hierarchy.clusters.l2cache.UpgradeReq.mshrMissRate::total     0.000002                       # mshr miss rate for UpgradeReq accesses (Ratio)
board.cache_hierarchy.clusters.l2cache.UpgradeReq.avgMshrMissLatency::processor.cores.core.data         5328                       # average UpgradeReq mshr miss latency ((Tick/Count))
board.cache_hierarchy.clusters.l2cache.UpgradeReq.avgMshrMissLatency::total         5328                       # average UpgradeReq mshr miss latency ((Tick/Count))
board.cache_hierarchy.clusters.l2cache.WritebackDirty.hits::writebacks      3394735                       # number of WritebackDirty hits (Count)
board.cache_hierarchy.clusters.l2cache.WritebackDirty.hits::total      3394735                       # number of WritebackDirty hits (Count)
board.cache_hierarchy.clusters.l2cache.WritebackDirty.accesses::writebacks      3394735                       # number of WritebackDirty accesses(hits+misses) (Count)
board.cache_hierarchy.clusters.l2cache.WritebackDirty.accesses::total      3394735                       # number of WritebackDirty accesses(hits+misses) (Count)
board.cache_hierarchy.clusters.l2cache.power_state.pwrStateResidencyTicks::UNDEFINED 589150341585                       # Cumulative time (in ticks) in various power states (Tick)
board.cache_hierarchy.clusters.l2cache.tags.tagsInUse        16384                       # Average ticks per tags in use ((Tick/Count))
board.cache_hierarchy.clusters.l2cache.tags.totalRefs     11730095                       # Total number of references to valid blocks. (Count)
board.cache_hierarchy.clusters.l2cache.tags.sampledRefs      3437478                       # Sample count of references to valid blocks. (Count)
board.cache_hierarchy.clusters.l2cache.tags.avgRefs     3.412413                       # Average number of references to valid blocks. ((Count/Count))
board.cache_hierarchy.clusters.l2cache.tags.warmupTick            0                       # The tick when the warmup percentage was hit. (Tick)
board.cache_hierarchy.clusters.l2cache.tags.occupancies::writebacks     1.195839                       # Average occupied blocks per tick, per requestor ((Count/Tick))
board.cache_hierarchy.clusters.l2cache.tags.occupancies::processor.cores.core.inst     2.131340                       # Average occupied blocks per tick, per requestor ((Count/Tick))
board.cache_hierarchy.clusters.l2cache.tags.occupancies::processor.cores.core.data 16380.672821                       # Average occupied blocks per tick, per requestor ((Count/Tick))
board.cache_hierarchy.clusters.l2cache.tags.avgOccs::writebacks     0.000073                       # Average percentage of cache occupancy ((Ratio/Tick))
board.cache_hierarchy.clusters.l2cache.tags.avgOccs::processor.cores.core.inst     0.000130                       # Average percentage of cache occupancy ((Ratio/Tick))
board.cache_hierarchy.clusters.l2cache.tags.avgOccs::processor.cores.core.data     0.999797                       # Average percentage of cache occupancy ((Ratio/Tick))
board.cache_hierarchy.clusters.l2cache.tags.avgOccs::total            1                       # Average percentage of cache occupancy ((Ratio/Tick))
board.cache_hierarchy.clusters.l2cache.tags.occupanciesTaskId::1024        16384                       # Occupied blocks per task id (Count)
board.cache_hierarchy.clusters.l2cache.tags.ageTaskId_1024::0          175                       # Occupied blocks per task id, per block age (Count)
board.cache_hierarchy.clusters.l2cache.tags.ageTaskId_1024::1         5985                       # Occupied blocks per task id, per block age (Count)
board.cache_hierarchy.clusters.l2cache.tags.ageTaskId_1024::2        10223                       # Occupied blocks per task id, per block age (Count)
board.cache_hierarchy.clusters.l2cache.tags.ageTaskId_1024::3            1                       # Occupied blocks per task id, per block age (Count)
board.cache_hierarchy.clusters.l2cache.tags.ratioOccsTaskId::1024            1                       # Ratio of occupied blocks and all blocks, per task id (Ratio)
board.cache_hierarchy.clusters.l2cache.tags.tagAccesses    190560086                       # Number of tag accesses (Count)
board.cache_hierarchy.clusters.l2cache.tags.dataAccesses    190560086                       # Number of data accesses (Count)
board.cache_hierarchy.clusters.l2cache.tags.power_state.pwrStateResidencyTicks::UNDEFINED 589150341585                       # Cumulative time (in ticks) in various power states (Tick)
board.cache_hierarchy.l3_bus.transDist::ReadResp      2775724                       # Transaction distribution (Count)
board.cache_hierarchy.l3_bus.transDist::WritebackDirty      2887783                       # Transaction distribution (Count)
board.cache_hierarchy.l3_bus.transDist::CleanEvict       533442                       # Transaction distribution (Count)
board.cache_hierarchy.l3_bus.transDist::UpgradeReq            1                       # Transaction distribution (Count)
board.cache_hierarchy.l3_bus.transDist::UpgradeResp            1                       # Transaction distribution (Count)
board.cache_hierarchy.l3_bus.transDist::ReadExReq       645114                       # Transaction distribution (Count)
board.cache_hierarchy.l3_bus.transDist::ReadExResp       645114                       # Transaction distribution (Count)
board.cache_hierarchy.l3_bus.transDist::ReadSharedReq      2775724                       # Transaction distribution (Count)
board.cache_hierarchy.l3_bus.pktCount_board.cache_hierarchy.clusters.l2cache.mem_side_port::board.cache_hierarchy.l3_cache.cpu_side_port     10262903                       # Packet count per connected requestor and responder (Count)
board.cache_hierarchy.l3_bus.pktSize_board.cache_hierarchy.clusters.l2cache.mem_side_port::board.cache_hierarchy.l3_cache.cpu_side_port    403751744                       # Cumulative packet size per connected requestor and responder (Byte)
board.cache_hierarchy.l3_bus.snoops                 0                       # Total snoops (Count)
board.cache_hierarchy.l3_bus.snoopTraffic            0                       # Total snoop traffic (Byte)
board.cache_hierarchy.l3_bus.snoopFanout::samples      3420839                       # Request fanout histogram (Count)
board.cache_hierarchy.l3_bus.snoopFanout::mean            0                       # Request fanout histogram (Count)
board.cache_hierarchy.l3_bus.snoopFanout::stdev            0                       # Request fanout histogram (Count)
board.cache_hierarchy.l3_bus.snoopFanout::underflows            0      0.00%      0.00% # Request fanout histogram (Count)
board.cache_hierarchy.l3_bus.snoopFanout::0      3420839    100.00%    100.00% # Request fanout histogram (Count)
board.cache_hierarchy.l3_bus.snoopFanout::1            0      0.00%    100.00% # Request fanout histogram (Count)
board.cache_hierarchy.l3_bus.snoopFanout::overflows            0      0.00%    100.00% # Request fanout histogram (Count)
board.cache_hierarchy.l3_bus.snoopFanout::min_value            0                       # Request fanout histogram (Count)
board.cache_hierarchy.l3_bus.snoopFanout::max_value            0                       # Request fanout histogram (Count)
board.cache_hierarchy.l3_bus.snoopFanout::total      3420839                       # Request fanout histogram (Count)
board.cache_hierarchy.l3_bus.power_state.pwrStateResidencyTicks::UNDEFINED 589150341585                       # Cumulative time (in ticks) in various power states (Tick)
board.cache_hierarchy.l3_bus.reqLayer0.occupancy   4201670790                       # Layer occupancy (ticks) (Tick)
board.cache_hierarchy.l3_bus.reqLayer0.utilization          0.1                       # Layer utilization (Ratio)
board.cache_hierarchy.l3_bus.respLayer0.occupancy   3417417495                       # Layer occupancy (ticks) (Tick)
board.cache_hierarchy.l3_bus.respLayer0.utilization          0.1                       # Layer utilization (Ratio)
board.cache_hierarchy.l3_bus.snoop_filter.totRequests      6842064                       # Total number of requests made to the snoop filter. (Count)
board.cache_hierarchy.l3_bus.snoop_filter.hitSingleRequests      3421228                       # Number of requests hitting in the snoop filter with a single holder of the requested data. (Count)
board.cache_hierarchy.l3_bus.snoop_filter.hitMultiRequests            0                       # Number of requests hitting in the snoop filter with multiple (>1) holders of the requested data. (Count)
[...]
board.processor.cores.core.fetch.icacheWaitRetryStallCycles         1507                       # Number of stall cycles due to full MSHR (Cycle)
board.processor.cores.core.fetch.cacheLines     32948445                       # Number of cache lines fetched (Count)
board.processor.cores.core.fetch.icacheSquashes          937                       # Number of outstanding Icache misses that were squashed (Count)
board.processor.cores.core.fetch.nisnDist::samples    102564351                       # Number of instructions fetched each cycle (Total) (Count)
board.processor.cores.core.fetch.nisnDist::mean     5.127864                       # Number of instructions fetched each cycle (Total) (Count)
board.processor.cores.core.fetch.nisnDist::stdev     4.302519                       # Number of instructions fetched each cycle (Total) (Count)
board.processor.cores.core.fetch.nisnDist::underflows            0      0.00%      0.00% # Number of instructions fetched each cycle (Total) (Count)
board.processor.cores.core.fetch.nisnDist::0     31112703     30.33%     30.33% # Number of instructions fetched each cycle (Total) (Count)
board.processor.cores.core.fetch.nisnDist::1      3209995      3.13%     33.46% # Number of instructions fetched each cycle (Total) (Count)
board.processor.cores.core.fetch.nisnDist::2      6822769      6.65%     40.12% # Number of instructions fetched each cycle (Total) (Count)
board.processor.cores.core.fetch.nisnDist::3      4645739      4.53%     44.65% # Number of instructions fetched each cycle (Total) (Count)
board.processor.cores.core.fetch.nisnDist::4      2881033      2.81%     47.46% # Number of instructions fetched each cycle (Total) (Count)
board.processor.cores.core.fetch.nisnDist::5      1461967      1.43%     48.88% # Number of instructions fetched each cycle (Total) (Count)
board.processor.cores.core.fetch.nisnDist::6      6841355      6.67%     55.55% # Number of instructions fetched each cycle (Total) (Count)
board.processor.cores.core.fetch.nisnDist::7      4021976      3.92%     59.47% # Number of instructions fetched each cycle (Total) (Count)
board.processor.cores.core.fetch.nisnDist::8      1607336      1.57%     61.04% # Number of instructions fetched each cycle (Total) (Count)
board.processor.cores.core.fetch.nisnDist::9      5346092      5.21%     66.25% # Number of instructions fetched each cycle (Total) (Count)
board.processor.cores.core.fetch.nisnDist::10     34613386     33.75%    100.00% # Number of instructions fetched each cycle (Total) (Count)
board.processor.cores.core.fetch.nisnDist::overflows            0      0.00%    100.00% # Number of instructions fetched each cycle (Total) (Count)
board.processor.cores.core.fetch.nisnDist::min_value            0                       # Number of instructions fetched each cycle (Total) (Count)
board.processor.cores.core.fetch.nisnDist::max_value           10                       # Number of instructions fetched each cycle (Total) (Count)
board.processor.cores.core.fetch.nisnDist::total    102564351                       # Number of instructions fetched each cycle (Total) (Count)
board.processor.cores.core.fetchStats0.numInsts    324700718                       # Number of instructions fetched (thread level) (Count)
board.processor.cores.core.fetchStats0.numOps            0                       # Number of ops (including micro ops) fetched (thread level) (Count)
board.processor.cores.core.fetchStats0.fetchRate     3.164362                       # Number of inst fetches per cycle ((Count/Cycle))
board.processor.cores.core.fetchStats0.numBranches     12626511                       # Number of branches fetched (Count)
board.processor.cores.core.fetchStats0.branchRate     0.123051                       # Number of branch fetches per cycle (Ratio)
board.processor.cores.core.fetchStats0.icacheStallCycles       251478                       # ICache total stall cycles (Cycle)
board.processor.cores.core.fetchStats0.numFetchSuspends            0                       # Number of times Execute suspended instruction fetching (Count)
board.processor.cores.core.iew.idleCycles            0                       # Number of cycles IEW is idle (Cycle)
board.processor.cores.core.iew.squashCycles       316914                       # Number of cycles IEW is squashing (Cycle)
board.processor.cores.core.iew.blockCycles       703745                       # Number of cycles IEW is blocking (Cycle)
board.processor.cores.core.iew.unblockCycles       399681                       # Number of cycles IEW is unblocking (Cycle)
board.processor.cores.core.iew.dispatchedInsts    512157436                       # Number of instructions dispatched to IQ (Count)
board.processor.cores.core.iew.dispSquashedInsts       293144                       # Number of squashed instructions skipped by dispatch (Count)
board.processor.cores.core.iew.dispLoadInsts    106232577                       # Number of dispatched load instructions (Count)
board.processor.cores.core.iew.dispStoreInsts     27558422                       # Number of dispatched store instructions (Count)
board.processor.cores.core.iew.dispNonSpecInsts          122                       # Number of dispatched non-speculative instructions (Count)
board.processor.cores.core.iew.iqFullEvents            0                       # Number of times the IQ (or every part of it) has become full , causing a stall (Count)
board.processor.cores.core.iew.lsqFullEvents       399641                       # Number of times the LSQ has become full, causing a stall (Count)
board.processor.cores.core.iew.memOrderViolationEvents         5437                       # Number of memory order violations (Count)
board.processor.cores.core.iew.predictedTakenIncorrect       246585                       # Number of branches that were predicted taken incorrectly (Count)
board.processor.cores.core.iew.predictedNotTakenIncorrect        69108                       # Number of branches that were predicted not taken incorrectly (Count)
board.processor.cores.core.iew.branchMispredicts       315693                       # Number of branch mispredicts detected at execute (Count)
board.processor.cores.core.iew.instsToCommit    508151202                       # Cumulative count of insts sent to commit (Count)
board.processor.cores.core.iew.writebackCount    507883022                       # Cumulative count of insts written-back (Count)
board.processor.cores.core.iew.producerInst    359743589                       # Number of instructions producing a value (Count)
board.processor.cores.core.iew.consumerInst    564085769                       # Number of instructions consuming a value (Count)
board.processor.cores.core.iew.wbRate        4.949561                       # Insts written-back per cycle ((Count/Cycle))
board.processor.cores.core.iew.wbFanout      0.637746                       # Average fanout of values written-back ((Count/Count))
board.processor.cores.core.interrupts.clk_domain.clock         5328                       # Clock period in ticks (Tick)
board.processor.cores.core.lsq0.forwLoads       575474                       # Number of loads that had data forwarded from stores (Count)
board.processor.cores.core.lsq0.squashedLoads      1804483                       # Number of loads squashed (Count)
board.processor.cores.core.lsq0.ignoredResponses         6092                       # Number of memory responses ignored because the instruction is squashed (Count)
board.processor.cores.core.lsq0.memOrderViolation         5437                       # Number of memory ordering violations (Count)
board.processor.cores.core.lsq0.squashedStores       309113                       # Number of stores squashed (Count)
board.processor.cores.core.lsq0.rescheduledLoads           39                       # Number of loads that were rescheduled (Count)
board.processor.cores.core.lsq0.blockedByCache       879492                       # Number of times an access to memory failed due to the cache being blocked (Count)
board.processor.cores.core.lsq0.loadToUse::samples    104428132                       # Distribution of cycle latency between the first time a load is issued and its completion (Unspecified)
board.processor.cores.core.lsq0.loadToUse::mean    11.304958                       # Distribution of cycle latency between the first time a load is issued and its completion (Unspecified)
board.processor.cores.core.lsq0.loadToUse::stdev    16.660570                       # Distribution of cycle latency between the first time a load is issued and its completion (Unspecified)
board.processor.cores.core.lsq0.loadToUse::0-9     72783381     69.70%     69.70% # Distribution of cycle latency between the first time a load is issued and its completion (Unspecified)
board.processor.cores.core.lsq0.loadToUse::10-19     11884415     11.38%     81.08% # Distribution of cycle latency between the first time a load is issued and its completion (Unspecified)
board.processor.cores.core.lsq0.loadToUse::20-29      8456668      8.10%     89.18% # Distribution of cycle latency between the first time a load is issued and its completion (Unspecified)
board.processor.cores.core.lsq0.loadToUse::30-39      6535386      6.26%     95.43% # Distribution of cycle latency between the first time a load is issued and its completion (Unspecified)
board.processor.cores.core.lsq0.loadToUse::40-49      1808734      1.73%     97.17% # Distribution of cycle latency between the first time a load is issued and its completion (Unspecified)
board.processor.cores.core.lsq0.loadToUse::50-59      1070993      1.03%     98.19% # Distribution of cycle latency between the first time a load is issued and its completion (Unspecified)
board.processor.cores.core.lsq0.loadToUse::60-69       455258      0.44%     98.63% # Distribution of cycle latency between the first time a load is issued and its completion (Unspecified)
board.processor.cores.core.lsq0.loadToUse::70-79       209083      0.20%     98.83% # Distribution of cycle latency between the first time a load is issued and its completion (Unspecified)
board.processor.cores.core.lsq0.loadToUse::80-89       238126      0.23%     99.06% # Distribution of cycle latency between the first time a load is issued and its completion (Unspecified)
board.processor.cores.core.lsq0.loadToUse::90-99       218173      0.21%     99.26% # Distribution of cycle latency between the first time a load is issued and its completion (Unspecified)
board.processor.cores.core.lsq0.loadToUse::100-109       136497      0.13%     99.40% # Distribution of cycle latency between the first time a load is issued and its completion (Unspecified)
board.processor.cores.core.lsq0.loadToUse::110-119       171142      0.16%     99.56% # Distribution of cycle latency between the first time a load is issued and its completion (Unspecified)
board.processor.cores.core.lsq0.loadToUse::120-129       142583      0.14%     99.70% # Distribution of cycle latency between the first time a load is issued and its completion (Unspecified)
board.processor.cores.core.lsq0.loadToUse::130-139        80748      0.08%     99.77% # Distribution of cycle latency between the first time a load is issued and its completion (Unspecified)
board.processor.cores.core.lsq0.loadToUse::140-149        87740      0.08%     99.86% # Distribution of cycle latency between the first time a load is issued and its completion (Unspecified)
board.processor.cores.core.lsq0.loadToUse::150-159        80773      0.08%     99.93% # Distribution of cycle latency between the first time a load is issued and its completion (Unspecified)
board.processor.cores.core.lsq0.loadToUse::160-169        34116      0.03%     99.97% # Distribution of cycle latency between the first time a load is issued and its completion (Unspecified)
board.processor.cores.core.lsq0.loadToUse::170-179        18370      0.02%     99.98% # Distribution of cycle latency between the first time a load is issued and its completion (Unspecified)
board.processor.cores.core.lsq0.loadToUse::180-189        12855      0.01%    100.00% # Distribution of cycle latency between the first time a load is issued and its completion (Unspecified)
board.processor.cores.core.lsq0.loadToUse::190-199         2054      0.00%    100.00% # Distribution of cycle latency between the first time a load is issued and its completion (Unspecified)
board.processor.cores.core.lsq0.loadToUse::200-209          142      0.00%    100.00% # Distribution of cycle latency between the first time a load is issued and its completion (Unspecified)
board.processor.cores.core.lsq0.loadToUse::210-219          148      0.00%    100.00% # Distribution of cycle latency between the first time a load is issued and its completion (Unspecified)
board.processor.cores.core.lsq0.loadToUse::220-229          110      0.00%    100.00% # Distribution of cycle latency between the first time a load is issued and its completion (Unspecified)
board.processor.cores.core.lsq0.loadToUse::230-239          167      0.00%    100.00% # Distribution of cycle latency between the first time a load is issued and its completion (Unspecified)
board.processor.cores.core.lsq0.loadToUse::240-249          151      0.00%    100.00% # Distribution of cycle latency between the first time a load is issued and its completion (Unspecified)
board.processor.cores.core.lsq0.loadToUse::250-259          117      0.00%    100.00% # Distribution of cycle latency between the first time a load is issued and its completion (Unspecified)
board.processor.cores.core.lsq0.loadToUse::260-269           69      0.00%    100.00% # Distribution of cycle latency between the first time a load is issued and its completion (Unspecified)
board.processor.cores.core.lsq0.loadToUse::270-279           44      0.00%    100.00% # Distribution of cycle latency between the first time a load is issued and its completion (Unspecified)
board.processor.cores.core.lsq0.loadToUse::280-289           48      0.00%    100.00% # Distribution of cycle latency between the first time a load is issued and its completion (Unspecified)
board.processor.cores.core.lsq0.loadToUse::290-299           16      0.00%    100.00% # Distribution of cycle latency between the first time a load is issued and its completion (Unspecified)
board.processor.cores.core.lsq0.loadToUse::overflows           25      0.00%    100.00% # Distribution of cycle latency between the first time a load is issued and its completion (Unspecified)
board.processor.cores.core.lsq0.loadToUse::min_value            2                       # Distribution of cycle latency between the first time a load is issued and its completion (Unspecified)
board.processor.cores.core.lsq0.loadToUse::max_value         1295                       # Distribution of cycle latency between the first time a load is issued and its completion (Unspecified)
board.processor.cores.core.lsq0.loadToUse::total    104428132                       # Distribution of cycle latency between the first time a load is issued and its completion (Unspecified)
board.processor.cores.core.mmu.dtb.rdAccesses    105673522                       # TLB accesses on read requests (Count)
board.processor.cores.core.mmu.dtb.wrAccesses     27314201                       # TLB accesses on write requests (Count)
board.processor.cores.core.mmu.dtb.rdMisses        87141                       # TLB misses on read requests (Count)
board.processor.cores.core.mmu.dtb.wrMisses        10356                       # TLB misses on write requests (Count)
board.processor.cores.core.mmu.dtb.walker.power_state.pwrStateResidencyTicks::UNDEFINED 589150341585                       # Cumulative time (in ticks) in various power states (Tick)
board.processor.cores.core.mmu.itb.rdAccesses            0                       # TLB accesses on read requests (Count)
board.processor.cores.core.mmu.itb.wrAccesses     32948451                       # TLB accesses on write requests (Count)
board.processor.cores.core.mmu.itb.rdMisses            0                       # TLB misses on read requests (Count)
board.processor.cores.core.mmu.itb.wrMisses           23                       # TLB misses on write requests (Count)
board.processor.cores.core.mmu.itb.walker.power_state.pwrStateResidencyTicks::UNDEFINED 589150341585                       # Cumulative time (in ticks) in various power states (Tick)
board.processor.cores.core.power_state.pwrStateResidencyTicks::ON 589150341585                       # Cumulative time (in ticks) in various power states (Tick)
board.processor.cores.core.rename.squashCycles       316914                       # Number of cycles rename is squashing (Cycle)
board.processor.cores.core.rename.idleCycles     14990860                       # Number of cycles rename is idle (Cycle)
board.processor.cores.core.rename.blockCycles      9462369                       # Number of cycles rename is blocking (Cycle)
board.processor.cores.core.rename.serializeStallCycles            6                       # count of cycles rename stalled for serializing inst (Cycle)
board.processor.cores.core.rename.runCycles     52200036                       # Number of cycles rename is running (Cycle)
board.processor.cores.core.rename.unblockCycles     25594166                       # Number of cycles rename is unblocking (Cycle)
board.processor.cores.core.rename.renamedInsts    515399843                       # Number of instructions processed by rename (Count)
board.processor.cores.core.rename.ROBFullEvents     16123576                       # Number of times rename has blocked due to ROB full (Count)
board.processor.cores.core.rename.SQFullEvents      2875526                       # Number of times rename has blocked due to SQ full (Count)
board.processor.cores.core.rename.renamedOperands    732943678                       # Number of destination operands rename has renamed (Count)
board.processor.cores.core.rename.lookups   1422008428                       # Number of register rename lookups that rename has made (Count)
board.processor.cores.core.rename.intLookups    356929270                       # Number of integer rename lookups (Count)
board.processor.cores.core.rename.fpLookups    539675192                       # Number of floating rename lookups (Count)
board.processor.cores.core.rename.committedMaps    716136203                       # Number of HB maps that are committed (Count)
board.processor.cores.core.rename.undoneMaps     16808060                       # Number of HB maps that are undone due to squashing (Count)
board.processor.cores.core.rename.serializing            1                       # count of serializing insts renamed (Count)
board.processor.cores.core.rename.tempSerializing            1                       # count of temporary serializing insts renamed (Count)
board.processor.cores.core.rename.skidInsts    103162274                       # count of insts added to the skid buffer (Count)
board.processor.cores.core.rob.reads        588531164                       # The number of ROB reads (Count)
board.processor.cores.core.rob.writes      1025337754                       # The number of ROB writes (Count)
board.processor.cores.core.thread_0.numInsts    311922441                       # Number of Instructions committed (Count)
board.processor.cores.core.thread_0.numOps    505217623                       # Number of Ops committed (Count)
board.processor.cores.core.thread_0.numMemRefs            0                       # Number of Memory References (Count)
board.processor.cores.core.workload.numSyscalls            3                       # Number of system calls (Count)
board.workload.inst.arm                             0                       # number of arm instructions executed (Count)
board.workload.inst.quiesce                         0                       # number of quiesce instructions executed (Count)

---------- End Simulation Statistics   ----------
