
---------- Begin Simulation Statistics ----------
simSeconds                                   0.010613                       # Number of seconds simulated (Second)
simTicks                                  10613316393                       # Number of ticks simulated (Tick)
finalTick                                 10613316393                       # Number of ticks from beginning of simulation (restored from checkpoints and never reset) (Tick)
simFreq                                  1000000000000                       # The number of ticks per simulated second ((Tick/Second))
hostSeconds                                    183.51                       # Real time elapsed on the host (Second)
hostTickRate                                 57834518                       # The number of ticks simulated per host second (ticks/s) ((Tick/Second))
hostMemory                                    1819408                       # Number of bytes of host memory used (Byte)
simInsts                                     31414516                       # Number of instructions simulated (Count)
simOps                                       54341153                       # Number of ops (including micro ops) simulated (Count)
hostInstRate                                   171185                       # Simulator instruction rate (inst/s) ((Count/Second))
hostOpRate                                     296118                       # Simulator op (including micro ops) rate (op/s) ((Count/Second))
board.cache_hierarchy.clusters.dptw_cache.blockedCycles::no_mshrs            0                       # number of cycles access was blocked (Cycle)
board.cache_hierarchy.clusters.dptw_cache.blockedCycles::no_targets            0                       # number of cycles access was blocked (Cycle)
board.cache_hierarchy.clusters.dptw_cache.blockedCauses::no_mshrs            0                       # number of times access was blocked (Count)
board.cache_hierarchy.clusters.dptw_cache.blockedCauses::no_targets            0                       # number of times access was blocked (Count)
board.cache_hierarchy.clusters.dptw_cache.avgBlocked::no_mshrs          nan                       # average number of cycles each access was blocked ((Cycle/Count))
board.cache_hierarchy.clusters.dptw_cache.avgBlocked::no_targets          nan                       # average number of cycles each access was blocked ((Cycle/Count))
board.cache_hierarchy.clusters.dptw_cache.replacements            0                       # number of replacements (Count)
board.cache_hierarchy.clusters.dptw_cache.power_state.pwrStateResidencyTicks::UNDEFINED  10613316393                       # Cumulative time (in ticks) in various power states (Tick)
board.cache_hierarchy.clusters.dptw_cache.tags.tagsInUse            0                       # Average ticks per tags in use ((Tick/Count))
board.cache_hierarchy.clusters.dptw_cache.tags.totalRefs            0                       # Total number of references to valid blocks. (Count)
board.cache_hierarchy.clusters.dptw_cache.tags.sampledRefs            0                       # Sample count of references to valid blocks. (Count)
board.cache_hierarchy.clusters.dptw_cache.tags.avgRefs          nan                       # Average number of references to valid blocks. ((Count/Count))
board.cache_hierarchy.clusters.dptw_cache.tags.warmupTick            0                       # The tick when the warmup percentage was hit. (Tick)
board.cache_hierarchy.clusters.dptw_cache.tags.tagAccesses            0                       # Number of tag accesses (Count)
board.cache_hierarchy.clusters.dptw_cache.tags.dataAccesses            0                       # Number of data accesses (Count)
board.cache_hierarchy.clusters.dptw_cache.tags.power_state.pwrStateResidencyTicks::UNDEFINED  10613316393                       # Cumulative time (in ticks) in various power states (Tick)
board.cache_hierarchy.clusters.iptw_cache.blockedCycles::no_mshrs            0                       # number of cycles access was blocked (Cycle)
board.cache_hierarchy.clusters.iptw_cache.blockedCycles::no_targets            0                       # number of cycles access was blocked (Cycle)
board.cache_hierarchy.clusters.iptw_cache.blockedCauses::no_mshrs            0                       # number of times access was blocked (Count)
board.cache_hierarchy.clusters.iptw_cache.blockedCauses::no_targets            0                       # number of times access was blocked (Count)
board.cache_hierarchy.clusters.iptw_cache.avgBlocked::no_mshrs          nan                       # average number of cycles each access was blocked ((Cycle/Count))
board.cache_hierarchy.clusters.iptw_cache.avgBlocked::no_targets          nan                       # average number of cycles each access was blocked ((Cycle/Count))
board.cache_hierarchy.clusters.iptw_cache.replacements            0                       # number of replacements (Count)
board.cache_hierarchy.clusters.iptw_cache.power_state.pwrStateResidencyTicks::UNDEFINED  10613316393                       # Cumulative time (in ticks) in various power states (Tick)
board.cache_hierarchy.clusters.iptw_cache.tags.tagsInUse            0                       # Average ticks per tags in use ((Tick/Count))
board.cache_hierarchy.clusters.iptw_cache.tags.totalRefs            0                       # Total number of references to valid blocks. (Count)
board.cache_hierarchy.clusters.iptw_cache.tags.sampledRefs            0                       # Sample count of references to valid blocks. (Count)
board.cache_hierarchy.clusters.iptw_cache.tags.avgRefs          nan                       # Average number of references to valid blocks. ((Count/Count))
board.cache_hierarchy.clusters.iptw_cache.tags.warmupTick            0                       # The tick when the warmup percentage was hit. (Tick)
board.cache_hierarchy.clusters.iptw_cache.tags.tagAccesses            0                       # Number of tag accesses (Count)
board.cache_hierarchy.clusters.iptw_cache.tags.dataAccesses            0                       # Number of data accesses (Count)
board.cache_hierarchy.clusters.iptw_cache.tags.power_state.pwrStateResidencyTicks::UNDEFINED  10613316393                       # Cumulative time (in ticks) in various power states (Tick)
board.cache_hierarchy.clusters.l1dcache.demandHits::processor.cores.core.data      9184677                       # number of demand (read+write) hits (Count)
board.cache_hierarchy.clusters.l1dcache.demandHits::total      9184677                       # number of demand (read+write) hits (Count)
board.cache_hierarchy.clusters.l1dcache.overallHits::processor.cores.core.data      9184677                       # number of overall hits (Count)
board.cache_hierarchy.clusters.l1dcache.overallHits::total      9184677                       # number of overall hits (Count)
board.cache_hierarchy.clusters.l1dcache.demandMisses::processor.cores.core.data       438127                       # number of demand (read+write) misses (Count)
board.cache_hierarchy.clusters.l1dcache.demandMisses::total       438127                       # number of demand (read+write) misses (Count)
board.cache_hierarchy.clusters.l1dcache.overallMisses::processor.cores.core.data       438127                       # number of overall misses (Count)
board.cache_hierarchy.clusters.l1dcache.overallMisses::total       438127                       # number of overall misses (Count)
board.cache_hierarchy.clusters.l1dcache.demandMissLatency::processor.cores.core.data   1803244283                       # number of demand (read+write) miss ticks (Tick)
board.cache_hierarchy.clusters.l1dcache.demandMissLatency::total   1803244283                       # number of demand (read+write) miss ticks (Tick)
board.cache_hierarchy.clusters.l1dcache.overallMissLatency::processor.cores.core.data   1803244283                       # number of overall miss ticks (Tick)
board.cache_hierarchy.clusters.l1dcache.overallMissLatency::total   1803244283                       # number of overall miss ticks (Tick)
board.cache_hierarchy.clusters.l1dcache.demandAccesses::processor.cores.core.data      9622804                       # number of demand (read+write) accesses (Count)
board.cache_hierarchy.clusters.l1dcache.demandAccesses::total      9622804                       # number of demand (read+write) accesses (Count)
board.cache_hierarchy.clusters.l1dcache.overallAccesses::processor.cores.core.data      9622804                       # number of overall (read+write) accesses (Count)
board.cache_hierarchy.clusters.l1dcache.overallAccesses::total      9622804                       # number of overall (read+write) accesses (Count)
board.cache_hierarchy.clusters.l1dcache.demandMissRate::processor.cores.core.data     0.045530                       # miss rate for demand accesses (Ratio)
board.cache_hierarchy.clusters.l1dcache.demandMissRate::total     0.045530                       # miss rate for demand accesses (Ratio)
board.cache_hierarchy.clusters.l1dcache.overallMissRate::processor.cores.core.data     0.045530                       # miss rate for overall accesses (Ratio)
board.cache_hierarchy.clusters.l1dcache.overallMissRate::total     0.045530                       # miss rate for overall accesses (Ratio)
board.cache_hierarchy.clusters.l1dcache.demandAvgMissLatency::processor.cores.core.data  4115.802685                       # average overall miss latency in ticks ((Tick/Count))
board.cache_hierarchy.clusters.l1dcache.demandAvgMissLatency::total  4115.802685                       # average overall miss latency in ticks ((Tick/Count))
board.cache_hierarchy.clusters.l1dcache.overallAvgMissLatency::processor.cores.core.data  4115.802685                       # average overall miss latency ((Tick/Count))
board.cache_hierarchy.clusters.l1dcache.overallAvgMissLatency::total  4115.802685                       # average overall miss latency ((Tick/Count))
board.cache_hierarchy.clusters.l1dcache.blockedCycles::no_mshrs            0                       # number of cycles access was blocked (Cycle)
board.cache_hierarchy.clusters.l1dcache.blockedCycles::no_targets         9524                       # number of cycles access was blocked (Cycle)
board.cache_hierarchy.clusters.l1dcache.blockedCauses::no_mshrs            0                       # number of times access was blocked (Count)
board.cache_hierarchy.clusters.l1dcache.blockedCauses::no_targets         4100                       # number of times access was blocked (Count)
board.cache_hierarchy.clusters.l1dcache.avgBlocked::no_mshrs          nan                       # average number of cycles each access was blocked ((Cycle/Count))
board.cache_hierarchy.clusters.l1dcache.avgBlocked::no_targets     2.322927                       # average number of cycles each access was blocked ((Cycle/Count))
board.cache_hierarchy.clusters.l1dcache.writebacks::writebacks       258327                       # number of writebacks (Count)
board.cache_hierarchy.clusters.l1dcache.writebacks::total       258327                       # number of writebacks (Count)
board.cache_hierarchy.clusters.l1dcache.demandMshrHits::processor.cores.core.data       179164                       # number of demand (read+write) MSHR hits (Count)
board.cache_hierarchy.clusters.l1dcache.demandMshrHits::total       179164                       # number of demand (read+write) MSHR hits (Count)
board.cache_hierarchy.clusters.l1dcache.overallMshrHits::processor.cores.core.data       179164                       # number of overall MSHR hits (Count)
board.cache_hierarchy.clusters.l1dcache.overallMshrHits::total       179164                       # number of overall MSHR hits (Count)
board.cache_hierarchy.clusters.l1dcache.demandMshrMisses::processor.cores.core.data       258963                       # number of demand (read+write) MSHR misses (Count)
board.cache_hierarchy.clusters.l1dcache.demandMshrMisses::total       258963                       # number of demand (read+write) MSHR misses (Count)
board.cache_hierarchy.clusters.l1dcache.overallMshrMisses::processor.cores.core.data       258963                       # number of overall MSHR misses (Count)
board.cache_hierarchy.clusters.l1dcache.overallMshrMisses::total       258963                       # number of overall MSHR misses (Count)
board.cache_hierarchy.clusters.l1dcache.demandMshrMissLatency::processor.cores.core.data   1305476882                       # number of demand (read+write) MSHR miss ticks (Tick)
board.cache_hierarchy.clusters.l1dcache.demandMshrMissLatency::total   1305476882                       # number of demand (read+write) MSHR miss ticks (Tick)
board.cache_hierarchy.clusters.l1dcache.overallMshrMissLatency::processor.cores.core.data   1305476882                       # number of overall MSHR miss ticks (Tick)
board.cache_hierarchy.clusters.l1dcache.overallMshrMissLatency::total   1305476882                       # number of overall MSHR miss ticks (Tick)
board.cache_hierarchy.clusters.l1dcache.demandMshrMissRate::processor.cores.core.data     0.026911                       # mshr miss ratio for demand accesses (Ratio)
board.cache_hierarchy.clusters.l1dcache.demandMshrMissRate::total     0.026911                       # mshr miss ratio for demand accesses (Ratio)
board.cache_hierarchy.clusters.l1dcache.overallMshrMissRate::processor.cores.core.data     0.026911                       # mshr miss ratio for overall accesses (Ratio)
board.cache_hierarchy.clusters.l1dcache.overallMshrMissRate::total     0.026911                       # mshr miss ratio for overall accesses (Ratio)
board.cache_hierarchy.clusters.l1dcache.demandAvgMshrMissLatency::processor.cores.core.data  5041.171449                       # average overall mshr miss latency ((Tick/Count))
board.cache_hierarchy.clusters.l1dcache.demandAvgMshrMissLatency::total  5041.171449                       # average overall mshr miss latency ((Tick/Count))
board.cache_hierarchy.clusters.l1dcache.overallAvgMshrMissLatency::processor.cores.core.data  5041.171449                       # average overall mshr miss latency ((Tick/Count))
board.cache_hierarchy.clusters.l1dcache.overallAvgMshrMissLatency::total  5041.171449                       # average overall mshr miss latency ((Tick/Count))
board.cache_hierarchy.clusters.l1dcache.replacements       258453                       # number of replacements (Count)
board.cache_hierarchy.clusters.l1dcache.LockedRMWReadReq.hits::processor.cores.core.data           68                       # number of LockedRMWReadReq hits (Count)
board.cache_hierarchy.clusters.l1dcache.LockedRMWReadReq.hits::total           68                       # number of LockedRMWReadReq hits (Count)
board.cache_hierarchy.clusters.l1dcache.LockedRMWReadReq.misses::processor.cores.core.data            2                       # number of LockedRMWReadReq misses (Count)
board.cache_hierarchy.clusters.l1dcache.LockedRMWReadReq.misses::total            2                       # number of LockedRMWReadReq misses (Count)
board.cache_hierarchy.clusters.l1dcache.LockedRMWReadReq.missLatency::processor.cores.core.data        83250                       # number of LockedRMWReadReq miss ticks (Tick)
board.cache_hierarchy.clusters.l1dcache.LockedRMWReadReq.missLatency::total        83250                       # number of LockedRMWReadReq miss ticks (Tick)
board.cache_hierarchy.clusters.l1dcache.LockedRMWReadReq.accesses::processor.cores.core.data           70                       # number of LockedRMWReadReq accesses(hits+misses) (Count)
board.cache_hierarchy.clusters.l1dcache.LockedRMWReadReq.accesses::total           70                       # number of LockedRMWReadReq accesses(hits+misses) (Count)
board.cache_hierarchy.clusters.l1dcache.LockedRMWReadReq.missRate::processor.cores.core.data     0.028571                       # miss rate for LockedRMWReadReq accesses (Ratio)
board.cache_hierarchy.clusters.l1dcache.LockedRMWReadReq.missRate::total     0.028571                       # miss rate for LockedRMWReadReq accesses (Ratio)
board.cache_hierarchy.clusters.l1dcache.LockedRMWReadReq.avgMissLatency::processor.cores.core.data        41625                       # average LockedRMWReadReq miss latency ((Tick/Count))
board.cache_hierarchy.clusters.l1dcache.LockedRMWReadReq.avgMissLatency::total        41625                       # average LockedRMWReadReq miss latency ((Tick/Count))
board.cache_hierarchy.clusters.l1dcache.LockedRMWReadReq.mshrMisses::processor.cores.core.data            2                       # number of LockedRMWReadReq MSHR misses (Count)
board.cache_hierarchy.clusters.l1dcache.LockedRMWReadReq.mshrMisses::total            2                       # number of LockedRMWReadReq MSHR misses (Count)
board.cache_hierarchy.clusters.l1dcache.LockedRMWReadReq.mshrMissLatency::processor.cores.core.data       344655                       # number of LockedRMWReadReq MSHR miss ticks (Tick)
board.cache_hierarchy.clusters.l1dcache.LockedRMWReadReq.mshrMissLatency::total       344655                       # number of LockedRMWReadReq MSHR miss ticks (Tick)
board.cache_hierarchy.clusters.l1dcache.LockedRMWReadReq.mshrMissRate::processor.cores.core.data     0.028571                       # mshr miss rate for LockedRMWReadReq accesses (Ratio)
board.cache_hierarchy.clusters.l1dcache.LockedRMWReadReq.mshrMissRate::total     0.028571                       # mshr miss rate for LockedRMWReadReq accesses (Ratio)
board.cache_hierarchy.clusters.l1dcache.LockedRMWReadReq.avgMshrMissLatency::processor.cores.core.data 172327.500000                       # average LockedRMWReadReq mshr miss latency ((Tick/Count))
board.cache_hierarchy.clusters.l1dcache.LockedRMWReadReq.avgMshrMissLatency::total 172327.500000                       # average LockedRMWReadReq mshr miss latency ((Tick/Count))
board.cache_hierarchy.clusters.l1dcache.LockedRMWWriteReq.hits::processor.cores.core.data           70                       # number of LockedRMWWriteReq hits (Count)
board.cache_hierarchy.clusters.l1dcache.LockedRMWWriteReq.hits::total           70                       # number of LockedRMWWriteReq hits (Count)
board.cache_hierarchy.clusters.l1dcache.LockedRMWWriteReq.accesses::processor.cores.core.data           70                       # number of LockedRMWWriteReq accesses(hits+misses) (Count)
board.cache_hierarchy.clusters.l1dcache.LockedRMWWriteReq.accesses::total           70                       # number of LockedRMWWriteReq accesses(hits+misses) (Count)
board.cache_hierarchy.clusters.l1dcache.ReadReq.hits::processor.cores.core.data      5645283                       # number of ReadReq hits (Count)
board.cache_hierarchy.clusters.l1dcache.ReadReq.hits::total      5645283                       # number of ReadReq hits (Count)
board.cache_hierarchy.clusters.l1dcache.ReadReq.misses::processor.cores.core.data       325890                       # number of ReadReq misses (Count)
board.cache_hierarchy.clusters.l1dcache.ReadReq.misses::total       325890                       # number of ReadReq misses (Count)
board.cache_hierarchy.clusters.l1dcache.ReadReq.missLatency::processor.cores.core.data    915239178                       # number of ReadReq miss ticks (Tick)
board.cache_hierarchy.clusters.l1dcache.ReadReq.missLatency::total    915239178                       # number of ReadReq miss ticks (Tick)
board.cache_hierarchy.clusters.l1dcache.ReadReq.accesses::processor.cores.core.data      5971173                       # number of ReadReq accesses(hits+misses) (Count)
board.cache_hierarchy.clusters.l1dcache.ReadReq.accesses::total      5971173                       # number of ReadReq accesses(hits+misses) (Count)
board.cache_hierarchy.clusters.l1dcache.ReadReq.missRate::processor.cores.core.data     0.054577                       # miss rate for ReadReq accesses (Ratio)
board.cache_hierarchy.clusters.l1dcache.ReadReq.missRate::total     0.054577                       # miss rate for ReadReq accesses (Ratio)
board.cache_hierarchy.clusters.l1dcache.ReadReq.avgMissLatency::processor.cores.core.data  2808.429771                       # average ReadReq miss latency ((Tick/Count))
board.cache_hierarchy.clusters.l1dcache.ReadReq.avgMissLatency::total  2808.429771                       # average ReadReq miss latency ((Tick/Count))
board.cache_hierarchy.clusters.l1dcache.ReadReq.mshrHits::processor.cores.core.data       179162                       # number of ReadReq MSHR hits (Count)
board.cache_hierarchy.clusters.l1dcache.ReadReq.mshrHits::total       179162                       # number of ReadReq MSHR hits (Count)
board.cache_hierarchy.clusters.l1dcache.ReadReq.mshrMisses::processor.cores.core.data       146728                       # number of ReadReq MSHR misses (Count)
board.cache_hierarchy.clusters.l1dcache.ReadReq.mshrMisses::total       146728                       # number of ReadReq MSHR misses (Count)
board.cache_hierarchy.clusters.l1dcache.ReadReq.mshrMissLatency::processor.cores.core.data    454889988                       # number of ReadReq MSHR miss ticks (Tick)
board.cache_hierarchy.clusters.l1dcache.ReadReq.mshrMissLatency::total    454889988                       # number of ReadReq MSHR miss ticks (Tick)
board.cache_hierarchy.clusters.l1dcache.ReadReq.mshrMissRate::processor.cores.core.data     0.024573                       # mshr miss rate for ReadReq accesses (Ratio)
board.cache_hierarchy.clusters.l1dcache.ReadReq.mshrMissRate::total     0.024573                       # mshr miss rate for ReadReq accesses (Ratio)
board.cache_hierarchy.clusters.l1dcache.ReadReq.avgMshrMissLatency::processor.cores.core.data  3100.226187                       # average ReadReq mshr miss latency ((Tick/Count))
board.cache_hierarchy.clusters.l1dcache.ReadReq.avgMshrMissLatency::total  3100.226187                       # average ReadReq mshr miss latency ((Tick/Count))
board.cache_hierarchy.clusters.l1dcache.WriteReq.hits::processor.cores.core.data      3539394                       # number of WriteReq hits (Count)
board.cache_hierarchy.clusters.l1dcache.WriteReq.hits::total      3539394                       # number of WriteReq hits (Count)
board.cache_hierarchy.clusters.l1dcache.WriteReq.misses::processor.cores.core.data       112237                       # number of WriteReq misses (Count)
board.cache_hierarchy.clusters.l1dcache.WriteReq.misses::total       112237                       # number of WriteReq misses (Count)
board.cache_hierarchy.clusters.l1dcache.WriteReq.missLatency::processor.cores.core.data    888005105                       # number of WriteReq miss ticks (Tick)
board.cache_hierarchy.clusters.l1dcache.WriteReq.missLatency::total    888005105                       # number of WriteReq miss ticks (Tick)
board.cache_hierarchy.clusters.l1dcache.WriteReq.accesses::processor.cores.core.data      3651631                       # number of WriteReq accesses(hits+misses) (Count)
board.cache_hierarchy.clusters.l1dcache.WriteReq.accesses::total      3651631                       # number of WriteReq accesses(hits+misses) (Count)
board.cache_hierarchy.clusters.l1dcache.WriteReq.missRate::processor.cores.core.data     0.030736                       # miss rate for WriteReq accesses (Ratio)
board.cache_hierarchy.clusters.l1dcache.WriteReq.missRate::total     0.030736                       # miss rate for WriteReq accesses (Ratio)
board.cache_hierarchy.clusters.l1dcache.WriteReq.avgMissLatency::processor.cores.core.data  7911.874916                       # average WriteReq miss latency ((Tick/Count))
board.cache_hierarchy.clusters.l1dcache.WriteReq.avgMissLatency::total  7911.874916                       # average WriteReq miss latency ((Tick/Count))
board.cache_hierarchy.clusters.l1dcache.WriteReq.mshrHits::processor.cores.core.data            2                       # number of WriteReq MSHR hits (Count)
board.cache_hierarchy.clusters.l1dcache.WriteReq.mshrHits::total            2                       # number of WriteReq MSHR hits (Count)
board.cache_hierarchy.clusters.l1dcache.WriteReq.mshrMisses::processor.cores.core.data       112235                       # number of WriteReq MSHR misses (Count)
board.cache_hierarchy.clusters.l1dcache.WriteReq.mshrMisses::total       112235                       # number of WriteReq MSHR misses (Count)
board.cache_hierarchy.clusters.l1dcache.WriteReq.mshrMissLatency::processor.cores.core.data    850586894                       # number of WriteReq MSHR miss ticks (Tick)
board.cache_hierarchy.clusters.l1dcache.WriteReq.mshrMissLatency::total    850586894                       # number of WriteReq MSHR miss ticks (Tick)
board.cache_hierarchy.clusters.l1dcache.WriteReq.mshrMissRate::processor.cores.core.data     0.030736                       # mshr miss rate for WriteReq accesses (Ratio)
board.cache_hierarchy.clusters.l1dcache.WriteReq.mshrMissRate::total     0.030736                       # mshr miss rate for WriteReq accesses (Ratio)
board.cache_hierarchy.clusters.l1dcache.WriteReq.avgMshrMissLatency::processor.cores.core.data  7578.624262                       # average WriteReq mshr miss latency ((Tick/Count))
board.cache_hierarchy.clusters.l1dcache.WriteReq.avgMshrMissLatency::total  7578.624262                       # average WriteReq mshr miss latency ((Tick/Count))
board.cache_hierarchy.clusters.l1dcache.power_state.pwrStateResidencyTicks::UNDEFINED  10613316393                       # Cumulative time (in ticks) in various power states (Tick)
board.cache_hierarchy.clusters.l1dcache.tags.tagsInUse   507.781539                       # Average ticks per tags in use ((Tick/Count))
board.cache_hierarchy.clusters.l1dcache.tags.totalRefs      9443780                       # Total number of references to valid blocks. (Count)
board.cache_hierarchy.clusters.l1dcache.tags.sampledRefs       258965                       # Sample count of references to valid blocks. (Count)
board.cache_hierarchy.clusters.l1dcache.tags.avgRefs    36.467399                       # Average number of references to valid blocks. ((Count/Count))
board.cache_hierarchy.clusters.l1dcache.tags.warmupTick       142191                       # The tick when the warmup percentage was hit. (Tick)
board.cache_hierarchy.clusters.l1dcache.tags.occupancies::processor.cores.core.data   507.781539                       # Average occupied blocks per tick, per requestor ((Count/Tick))
board.cache_hierarchy.clusters.l1dcache.tags.avgOccs::processor.cores.core.data     0.991761                       # Average percentage of cache occupancy ((Ratio/Tick))
board.cache_hierarchy.clusters.l1dcache.tags.avgOccs::total     0.991761                       # Average percentage of cache occupancy ((Ratio/Tick))
board.cache_hierarchy.clusters.l1dcache.tags.occupanciesTaskId::1024          512                       # Occupied blocks per task id (Count)
board.cache_hierarchy.clusters.l1dcache.tags.ageTaskId_1024::0           54                       # Occupied blocks per task id, per block age (Count)
board.cache_hierarchy.clusters.l1dcache.tags.ageTaskId_1024::1          458                       # Occupied blocks per task id, per block age (Count)
board.cache_hierarchy.clusters.l1dcache.tags.ratioOccsTaskId::1024            1                       # Ratio of occupied blocks and all blocks, per task id (Ratio)
board.cache_hierarchy.clusters.l1dcache.tags.tagAccesses     77242517                       # Number of tag accesses (Count)
board.cache_hierarchy.clusters.l1dcache.tags.dataAccesses     77242517                       # Number of data accesses (Count)
board.cache_hierarchy.clusters.l1dcache.tags.power_state.pwrStateResidencyTicks::UNDEFINED  10613316393                       # Cumulative time (in ticks) in various power states (Tick)
board.cache_hierarchy.clusters.l1icache.demandHits::processor.cores.core.inst      4339193                       # number of demand (read+write) hits (Count)
board.cache_hierarchy.clusters.l1icache.demandHits::total      4339193                       # number of demand (read+write) hits (Count)
board.cache_hierarchy.clusters.l1icache.overallHits::processor.cores.core.inst      4339193                       # number of overall hits (Count)
board.cache_hierarchy.clusters.l1icache.overallHits::total      4339193                       # number of overall hits (Count)
board.cache_hierarchy.clusters.l1icache.demandMisses::processor.cores.core.inst         1374                       # number of demand (read+write) misses (Count)
board.cache_hierarchy.clusters.l1icache.demandMisses::total         1374                       # number of demand (read+write) misses (Count)
board.cache_hierarchy.clusters.l1icache.overallMisses::processor.cores.core.inst         1374                       # number of overall misses (Count)
board.cache_hierarchy.clusters.l1icache.overallMisses::total         1374                       # number of overall misses (Count)
board.cache_hierarchy.clusters.l1icache.demandMissLatency::processor.cores.core.inst     77119118                       # number of demand (read+write) miss ticks (Tick)
board.cache_hierarchy.clusters.l1icache.demandMissLatency::total     77119118                       # number of demand (read+write) miss ticks (Tick)
board.cache_hierarchy.clusters.l1icache.overallMissLatency::processor.cores.core.inst     77119118                       # number of overall miss ticks (Tick)
board.cache_hierarchy.clusters.l1icache.overallMissLatency::total     77119118                       # number of overall miss ticks (Tick)
board.cache_hierarchy.clusters.l1icache.demandAccesses::processor.cores.core.inst      4340567                       # number of demand (read+write) accesses (Count)
board.cache_hierarchy.clusters.l1icache.demandAccesses::total      4340567                       # number of demand (read+write) accesses (Count)
board.cache_hierarchy.clusters.l1icache.overallAccesses::processor.cores.core.inst      4340567                       # number of overall (read+write) accesses (Count)
board.cache_hierarchy.clusters.l1icache.overallAccesses::total      4340567                       # number of overall (read+write) accesses (Count)
board.cache_hierarchy.clusters.l1icache.demandMissRate::processor.cores.core.inst     0.000317                       # miss rate for demand accesses (Ratio)
board.cache_hierarchy.clusters.l1icache.demandMissRate::total     0.000317                       # miss rate for demand accesses (Ratio)
board.cache_hierarchy.clusters.l1icache.overallMissRate::processor.cores.core.inst     0.000317                       # miss rate for overall accesses (Ratio)
board.cache_hierarchy.clusters.l1icache.overallMissRate::total     0.000317                       # miss rate for overall accesses (Ratio)
board.cache_hierarchy.clusters.l1icache.demandAvgMissLatency::processor.cores.core.inst 56127.451237                       # average overall miss latency in ticks ((Tick/Count))
board.cache_hierarchy.clusters.l1icache.demandAvgMissLatency::total 56127.451237                       # average overall miss latency in ticks ((Tick/Count))
board.cache_hierarchy.clusters.l1icache.overallAvgMissLatency::processor.cores.core.inst 56127.451237                       # average overall miss latency ((Tick/Count))
board.cache_hierarchy.clusters.l1icache.overallAvgMissLatency::total 56127.451237                       # average overall miss latency ((Tick/Count))
board.cache_hierarchy.clusters.l1icache.blockedCycles::no_mshrs          223                       # number of cycles access was blocked (Cycle)
board.cache_hierarchy.clusters.l1icache.blockedCycles::no_targets        38050                       # number of cycles access was blocked (Cycle)
board.cache_hierarchy.clusters.l1icache.blockedCauses::no_mshrs            5                       # number of times access was blocked (Count)
board.cache_hierarchy.clusters.l1icache.blockedCauses::no_targets          264                       # number of times access was blocked (Count)
board.cache_hierarchy.clusters.l1icache.avgBlocked::no_mshrs    44.600000                       # average number of cycles each access was blocked ((Cycle/Count))
board.cache_hierarchy.clusters.l1icache.avgBlocked::no_targets   144.128788                       # average number of cycles each access was blocked ((Cycle/Count))
board.cache_hierarchy.clusters.l1icache.demandMshrHits::processor.cores.core.inst          264                       # number of demand (read+write) MSHR hits (Count)
board.cache_hierarchy.clusters.l1icache.demandMshrHits::total          264                       # number of demand (read+write) MSHR hits (Count)
board.cache_hierarchy.clusters.l1icache.overallMshrHits::processor.cores.core.inst          264                       # number of overall MSHR hits (Count)
board.cache_hierarchy.clusters.l1icache.overallMshrHits::total          264                       # number of overall MSHR hits (Count)
board.cache_hierarchy.clusters.l1icache.demandMshrMisses::processor.cores.core.inst         1110                       # number of demand (read+write) MSHR misses (Count)
board.cache_hierarchy.clusters.l1icache.demandMshrMisses::total         1110                       # number of demand (read+write) MSHR misses (Count)
board.cache_hierarchy.clusters.l1icache.overallMshrMisses::processor.cores.core.inst         1110                       # number of overall MSHR misses (Count)
board.cache_hierarchy.clusters.l1icache.overallMshrMisses::total         1110                       # number of overall MSHR misses (Count)
board.cache_hierarchy.clusters.l1icache.demandMshrMissLatency::processor.cores.core.inst     63990595                       # number of demand (read+write) MSHR miss ticks (Tick)
board.cache_hierarchy.clusters.l1icache.demandMshrMissLatency::total     63990595                       # number of demand (read+write) MSHR miss ticks (Tick)
board.cache_hierarchy.clusters.l1icache.overallMshrMissLatency::processor.cores.core.inst     63990595                       # number of overall MSHR miss ticks (Tick)
board.cache_hierarchy.clusters.l1icache.overallMshrMissLatency::total     63990595                       # number of overall MSHR miss ticks (Tick)
board.cache_hierarchy.clusters.l1icache.demandMshrMissRate::processor.cores.core.inst     0.000256                       # mshr miss ratio for demand accesses (Ratio)
board.cache_hierarchy.clusters.l1icache.demandMshrMissRate::total     0.000256                       # mshr miss ratio for demand accesses (Ratio)
board.cache_hierarchy.clusters.l1icache.overallMshrMissRate::processor.cores.core.inst     0.000256                       # mshr miss ratio for overall accesses (Ratio)
board.cache_hierarchy.clusters.l1icache.overallMshrMissRate::total     0.000256                       # mshr miss ratio for overall accesses (Ratio)
board.cache_hierarchy.clusters.l1icache.demandAvgMshrMissLatency::processor.cores.core.inst 57649.184685                       # average overall mshr miss latency ((Tick/Count))
board.cache_hierarchy.clusters.l1icache.demandAvgMshrMissLatency::total 57649.184685                       # average overall mshr miss latency ((Tick/Count))
board.cache_hierarchy.clusters.l1icache.overallAvgMshrMissLatency::processor.cores.core.inst 57649.184685                       # average overall mshr miss latency ((Tick/Count))
board.cache_hierarchy.clusters.l1icache.overallAvgMshrMissLatency::total 57649.184685                       # average overall mshr miss latency ((Tick/Count))
board.cache_hierarchy.clusters.l1icache.replacements          597                       # number of replacements (Count)
board.cache_hierarchy.clusters.l1icache.ReadReq.hits::processor.cores.core.inst      4339193                       # number of ReadReq hits (Count)
board.cache_hierarchy.clusters.l1icache.ReadReq.hits::total      4339193                       # number of ReadReq hits (Count)
board.cache_hierarchy.clusters.l1icache.ReadReq.misses::processor.cores.core.inst         1374                       # number of ReadReq misses (Count)
board.cache_hierarchy.clusters.l1icache.ReadReq.misses::total         1374                       # number of ReadReq misses (Count)
board.cache_hierarchy.clusters.l1icache.ReadReq.missLatency::processor.cores.core.inst     77119118                       # number of ReadReq miss ticks (Tick)
board.cache_hierarchy.clusters.l1icache.ReadReq.missLatency::total     77119118                       # number of ReadReq miss ticks (Tick)
board.cache_hierarchy.clusters.l1icache.ReadReq.accesses::processor.cores.core.inst      4340567                       # number of ReadReq accesses(hits+misses) (Count)
board.cache_hierarchy.clusters.l1icache.ReadReq.accesses::total      4340567                       # number of ReadReq accesses(hits+misses) (Count)
board.cache_hierarchy.clusters.l1icache.ReadReq.missRate::processor.cores.core.inst     0.000317                       # miss rate for ReadReq accesses (Ratio)
board.cache_hierarchy.clusters.l1icache.ReadReq.missRate::total     0.000317                       # miss rate for ReadReq accesses (Ratio)
board.cache_hierarchy.clusters.l1icache.ReadReq.avgMissLatency::processor.cores.core.inst 56127.451237                       # average ReadReq miss latency ((Tick/Count))
board.cache_hierarchy.clusters.l1icache.ReadReq.avgMissLatency::total 56127.451237                       # average ReadReq miss latency ((Tick/Count))
board.cache_hierarchy.clusters.l1icache.ReadReq.mshrHits::processor.cores.core.inst          264                       # number of ReadReq MSHR hits (Count)
board.cache_hierarchy.clusters.l1icache.ReadReq.mshrHits::total          264                       # number of ReadReq MSHR hits (Count)
board.cache_hierarchy.clusters.l1icache.ReadReq.mshrMisses::processor.cores.core.inst         1110                       # number of ReadReq MSHR misses (Count)
board.cache_hierarchy.clusters.l1icache.ReadReq.mshrMisses::total         1110                       # number of ReadReq MSHR misses (Count)
board.cache_hierarchy.clusters.l1icache.ReadReq.mshrMissLatency::processor.cores.core.inst     63990595                       # number of ReadReq MSHR miss ticks (Tick)
board.cache_hierarchy.clusters.l1icache.ReadReq.mshrMissLatency::total     63990595                       # number of ReadReq MSHR miss ticks (Tick)
board.cache_hierarchy.clusters.l1icache.ReadReq.mshrMissRate::processor.cores.core.inst     0.000256                       # mshr miss rate for ReadReq accesses (Ratio)
board.cache_hierarchy.clusters.l1icache.ReadReq.mshrMissRate::total     0.000256                       # mshr miss rate for ReadReq accesses (Ratio)
board.cache_hierarchy.clusters.l1icache.ReadReq.avgMshrMissLatency::processor.cores.core.inst 57649.184685                       # average ReadReq mshr miss latency ((Tick/Count))
board.cache_hierarchy.clusters.l1icache.ReadReq.avgMshrMissLatency::total 57649.184685                       # average ReadReq mshr miss latency ((Tick/Count))
board.cache_hierarchy.clusters.l1icache.power_state.pwrStateResidencyTicks::UNDEFINED  10613316393                       # Cumulative time (in ticks) in various power states (Tick)
board.cache_hierarchy.clusters.l1icache.tags.tagsInUse   498.060886                       # Average ticks per tags in use ((Tick/Count))
board.cache_hierarchy.clusters.l1icache.tags.totalRefs      4340302                       # Total number of references to valid blocks. (Count)
board.cache_hierarchy.clusters.l1icache.tags.sampledRefs         1109                       # Sample count of references to valid blocks. (Count)
board.cache_hierarchy.clusters.l1icache.tags.avgRefs  3913.707845                       # Average number of references to valid blocks. ((Count/Count))
board.cache_hierarchy.clusters.l1icache.tags.warmupTick        74259                       # The tick when the warmup percentage was hit. (Tick)
board.cache_hierarchy.clusters.l1icache.tags.occupancies::processor.cores.core.inst   498.060886                       # Average occupied blocks per tick, per requestor ((Count/Tick))
board.cache_hierarchy.clusters.l1icache.tags.avgOccs::processor.cores.core.inst     0.972775                       # Average percentage of cache occupancy ((Ratio/Tick))
board.cache_hierarchy.clusters.l1icache.tags.avgOccs::total     0.972775                       # Average percentage of cache occupancy ((Ratio/Tick))
board.cache_hierarchy.clusters.l1icache.tags.occupanciesTaskId::1024          512                       # Occupied blocks per task id (Count)
board.cache_hierarchy.clusters.l1icache.tags.ageTaskId_1024::0          173                       # Occupied blocks per task id, per block age (Count)
board.cache_hierarchy.clusters.l1icache.tags.ageTaskId_1024::1          153                       # Occupied blocks per task id, per block age (Count)
board.cache_hierarchy.clusters.l1icache.tags.ageTaskId_1024::2            2                       # Occupied blocks per task id, per block age (Count)
board.cache_hierarchy.clusters.l1icache.tags.ageTaskId_1024::3            8                       # Occupied blocks per task id, per block age (Count)
board.cache_hierarchy.clusters.l1icache.tags.ageTaskId_1024::4          176                       # Occupied blocks per task id, per block age (Count)
board.cache_hierarchy.clusters.l1icache.tags.ratioOccsTaskId::1024            1                       # Ratio of occupied blocks and all blocks, per task id (Ratio)
board.cache_hierarchy.clusters.l1icache.tags.tagAccesses     34725645                       # Number of tag accesses (Count)
board.cache_hierarchy.clusters.l1icache.tags.dataAccesses     34725645                       # Number of data accesses (Count)
board.cache_hierarchy.clusters.l1icache.tags.power_state.pwrStateResidencyTicks::UNDEFINED  10613316393                       # Cumulative time (in ticks) in various power states (Tick)
board.cache_hierarchy.clusters.l2_bus.transDist::ReadResp       147837                       # Transaction distribution (Count)
board.cache_hierarchy.clusters.l2_bus.transDist::WritebackDirty       258327                       # Transaction distribution (Count)
board.cache_hierarchy.clusters.l2_bus.transDist::CleanEvict          723                       # Transaction distribution (Count)
board.cache_hierarchy.clusters.l2_bus.transDist::ReadExReq       112237                       # Transaction distribution (Count)
board.cache_hierarchy.clusters.l2_bus.transDist::ReadExResp       112237                       # Transaction distribution (Count)
board.cache_hierarchy.clusters.l2_bus.transDist::ReadCleanReq         1110                       # Transaction distribution (Count)
board.cache_hierarchy.clusters.l2_bus.transDist::ReadSharedReq       146728                       # Transaction distribution (Count)
board.cache_hierarchy.clusters.l2_bus.pktCount_board.cache_hierarchy.clusters.l1dcache.mem_side_port::board.cache_hierarchy.clusters.l2cache.cpu_side_port       776383                       # Packet count per connected requestor and responder (Count)
board.cache_hierarchy.clusters.l2_bus.pktCount_board.cache_hierarchy.clusters.l1icache.mem_side_port::board.cache_hierarchy.clusters.l2cache.cpu_side_port         2816                       # Packet count per connected requestor and responder (Count)
board.cache_hierarchy.clusters.l2_bus.pktCount::total       779199                       # Packet count per connected requestor and responder (Count)
board.cache_hierarchy.clusters.l2_bus.pktSize_board.cache_hierarchy.clusters.l1dcache.mem_side_port::board.cache_hierarchy.clusters.l2cache.cpu_side_port     33106688                       # Cumulative packet size per connected requestor and responder (Byte)
board.cache_hierarchy.clusters.l2_bus.pktSize_board.cache_hierarchy.clusters.l1icache.mem_side_port::board.cache_hierarchy.clusters.l2cache.cpu_side_port        70976                       # Cumulative packet size per connected requestor and responder (Byte)
board.cache_hierarchy.clusters.l2_bus.pktSize::total     33177664                       # Cumulative packet size per connected requestor and responder (Byte)
board.cache_hierarchy.clusters.l2_bus.snoops            0                       # Total snoops (Count)
board.cache_hierarchy.clusters.l2_bus.snoopTraffic            0                       # Total snoop traffic (Byte)
board.cache_hierarchy.clusters.l2_bus.snoopFanout::samples       260075                       # Request fanout histogram (Count)
board.cache_hierarchy.clusters.l2_bus.snoopFanout::mean            0                       # Request fanout histogram (Count)
board.cache_hierarchy.clusters.l2_bus.snoopFanout::stdev            0                       # Request fanout histogram (Count)
board.cache_hierarchy.clusters.l2_bus.snoopFanout::underflows            0      0.00%      0.00% # Request fanout histogram (Count)
board.cache_hierarchy.clusters.l2_bus.snoopFanout::0       260075    100.00%    100.00% # Request fanout histogram (Count)
board.cache_hierarchy.clusters.l2_bus.snoopFanout::1            0      0.00%    100.00% # Request fanout histogram (Count)
board.cache_hierarchy.clusters.l2_bus.snoopFanout::2            0      0.00%    100.00% # Request fanout histogram (Count)
board.cache_hierarchy.clusters.l2_bus.snoopFanout::3            0      0.00%    100.00% # Request fanout histogram (Count)
board.cache_hierarchy.clusters.l2_bus.snoopFanout::4            0      0.00%    100.00% # Request fanout histogram (Count)
board.cache_hierarchy.clusters.l2_bus.snoopFanout::overflows            0      0.00%    100.00% # Request fanout histogram (Count)
board.cache_hierarchy.clusters.l2_bus.snoopFanout::min_value            0                       # Request fanout histogram (Count)
board.cache_hierarchy.clusters.l2_bus.snoopFanout::max_value            0                       # Request fanout histogram (Count)
board.cache_hierarchy.clusters.l2_bus.snoopFanout::total       260075                       # Request fanout histogram (Count)
board.cache_hierarchy.clusters.l2_bus.power_state.pwrStateResidencyTicks::UNDEFINED  10613316393                       # Cumulative time (in ticks) in various power states (Tick)
board.cache_hierarchy.clusters.l2_bus.reqLayer0.occupancy    344914407                       # Layer occupancy (ticks) (Tick)
board.cache_hierarchy.clusters.l2_bus.reqLayer0.utilization          0.0                       # Layer utilization (Ratio)
board.cache_hierarchy.clusters.l2_bus.respLayer0.occupancy    258706035                       # Layer occupancy (ticks) (Tick)
board.cache_hierarchy.clusters.l2_bus.respLayer0.utilization          0.0                       # Layer utilization (Ratio)
board.cache_hierarchy.clusters.l2_bus.respLayer1.occupancy      1107891                       # Layer occupancy (ticks) (Tick)
board.cache_hierarchy.clusters.l2_bus.respLayer1.utilization          0.0                       # Layer utilization (Ratio)
board.cache_hierarchy.clusters.l2_bus.snoop_filter.totRequests       519125                       # Total number of requests made to the snoop filter. (Count)
board.cache_hierarchy.clusters.l2_bus.snoop_filter.hitSingleRequests       259050                       # Number of requests hitting in the snoop filter with a single holder of the requested data. (Count)
board.cache_hierarchy.clusters.l2_bus.snoop_filter.hitMultiRequests            0                       # Number of requests hitting in the snoop filter with multiple (>1) holders of the requested data. (Count)
board.cache_hierarchy.clusters.l2_bus.snoop_filter.totSnoops            0                       # Total number of snoops made to the snoop filter. (Count)
board.cache_hierarchy.clusters.l2_bus.snoop_filter.hitSingleSnoops            0                       # Number of snoops hitting in the snoop filter with a single holder of the requested data. (Count)
board.cache_hierarchy.clusters.l2_bus.snoop_filter.hitMultiSnoops            0                       # Number of snoops hitting in the snoop filter with multiple (>1) holders of the requested data. (Count)
board.cache_hierarchy.clusters.l2cache.demandHits::processor.cores.core.inst           34                       # number of demand (read+write) hits (Count)
board.cache_hierarchy.clusters.l2cache.demandHits::processor.cores.core.data       250188                       # number of demand (read+write) hits (Count)
board.cache_hierarchy.clusters.l2cache.demandHits::total       250222                       # number of demand (read+write) hits (Count)
board.cache_hierarchy.clusters.l2cache.overallHits::processor.cores.core.inst           34                       # number of overall hits (Count)
board.cache_hierarchy.clusters.l2cache.overallHits::processor.cores.core.data       250188                       # number of overall hits (Count)
board.cache_hierarchy.clusters.l2cache.overallHits::total       250222                       # number of overall hits (Count)
board.cache_hierarchy.clusters.l2cache.demandMisses::processor.cores.core.inst         1076                       # number of demand (read+write) misses (Count)
board.cache_hierarchy.clusters.l2cache.demandMisses::processor.cores.core.data         8777                       # number of demand (read+write) misses (Count)
board.cache_hierarchy.clusters.l2cache.demandMisses::total         9853                       # number of demand (read+write) misses (Count)
board.cache_hierarchy.clusters.l2cache.overallMisses::processor.cores.core.inst         1076                       # number of overall misses (Count)
board.cache_hierarchy.clusters.l2cache.overallMisses::processor.cores.core.data         8777                       # number of overall misses (Count)
board.cache_hierarchy.clusters.l2cache.overallMisses::total         9853                       # number of overall misses (Count)
board.cache_hierarchy.clusters.l2cache.demandMissLatency::processor.cores.core.inst     63162108                       # number of demand (read+write) miss ticks (Tick)
board.cache_hierarchy.clusters.l2cache.demandMissLatency::processor.cores.core.data    539322804                       # number of demand (read+write) miss ticks (Tick)
board.cache_hierarchy.clusters.l2cache.demandMissLatency::total    602484912                       # number of demand (read+write) miss ticks (Tick)
board.cache_hierarchy.clusters.l2cache.overallMissLatency::processor.cores.core.inst     63162108                       # number of overall miss ticks (Tick)
board.cache_hierarchy.clusters.l2cache.overallMissLatency::processor.cores.core.data    539322804                       # number of overall miss ticks (Tick)
board.cache_hierarchy.clusters.l2cache.overallMissLatency::total    602484912                       # number of overall miss ticks (Tick)
board.cache_hierarchy.clusters.l2cache.demandAccesses::processor.cores.core.inst         1110                       # number of demand (read+write) accesses (Count)
board.cache_hierarchy.clusters.l2cache.demandAccesses::processor.cores.core.data       258965                       # number of demand (read+write) accesses (Count)
board.cache_hierarchy.clusters.l2cache.demandAccesses::total       260075                       # number of demand (read+write) accesses (Count)
board.cache_hierarchy.clusters.l2cache.overallAccesses::processor.cores.core.inst         1110                       # number of overall (read+write) accesses (Count)
board.cache_hierarchy.clusters.l2cache.overallAccesses::processor.cores.core.data       258965                       # number of overall (read+write) accesses (Count)
board.cache_hierarchy.clusters.l2cache.overallAccesses::total       260075                       # number of overall (read+write) accesses (Count)
board.cache_hierarchy.clusters.l2cache.demandMissRate::processor.cores.core.inst     0.969369                       # miss rate for demand accesses (Ratio)
board.cache_hierarchy.clusters.l2cache.demandMissRate::processor.cores.core.data     0.033893                       # miss rate for demand accesses (Ratio)
board.cache_hierarchy.clusters.l2cache.demandMissRate::total     0.037885                       # miss rate for demand accesses (Ratio)
board.cache_hierarchy.clusters.l2cache.overallMissRate::processor.cores.core.inst     0.969369                       # miss rate for overall accesses (Ratio)
board.cache_hierarchy.clusters.l2cache.overallMissRate::processor.cores.core.data     0.033893                       # miss rate for overall accesses (Ratio)
board.cache_hierarchy.clusters.l2cache.overallMissRate::total     0.037885                       # miss rate for overall accesses (Ratio)
board.cache_hierarchy.clusters.l2cache.demandAvgMissLatency::processor.cores.core.inst 58700.843866                       # average overall miss latency in ticks ((Tick/Count))
board.cache_hierarchy.clusters.l2cache.demandAvgMissLatency::processor.cores.core.data 61447.283126                       # average overall miss latency in ticks ((Tick/Count))
board.cache_hierarchy.clusters.l2cache.demandAvgMissLatency::total 61147.357353                       # average overall miss latency in ticks ((Tick/Count))
board.cache_hierarchy.clusters.l2cache.overallAvgMissLatency::processor.cores.core.inst 58700.843866                       # average overall miss latency ((Tick/Count))
board.cache_hierarchy.clusters.l2cache.overallAvgMissLatency::processor.cores.core.data 61447.283126                       # average overall miss latency ((Tick/Count))
board.cache_hierarchy.clusters.l2cache.overallAvgMissLatency::total 61147.357353                       # average overall miss latency ((Tick/Count))
board.cache_hierarchy.clusters.l2cache.blockedCycles::no_mshrs            0                       # number of cycles access was blocked (Cycle)
board.cache_hierarchy.clusters.l2cache.blockedCycles::no_targets            0                       # number of cycles access was blocked (Cycle)
board.cache_hierarchy.clusters.l2cache.blockedCauses::no_mshrs            0                       # number of times access was blocked (Count)
board.cache_hierarchy.clusters.l2cache.blockedCauses::no_targets            0                       # number of times access was blocked (Count)
board.cache_hierarchy.clusters.l2cache.avgBlocked::no_mshrs          nan                       # average number of cycles each access was blocked ((Cycle/Count))
board.cache_hierarchy.clusters.l2cache.avgBlocked::no_targets          nan                       # average number of cycles each access was blocked ((Cycle/Count))
board.cache_hierarchy.clusters.l2cache.demandMshrMisses::processor.cores.core.inst         1076                       # number of demand (read+write) MSHR misses (Count)
board.cache_hierarchy.clusters.l2cache.demandMshrMisses::processor.cores.core.data         8777                       # number of demand (read+write) MSHR misses (Count)
board.cache_hierarchy.clusters.l2cache.demandMshrMisses::total         9853                       # number of demand (read+write) MSHR misses (Count)
board.cache_hierarchy.clusters.l2cache.overallMshrMisses::processor.cores.core.inst         1076                       # number of overall MSHR misses (Count)
board.cache_hierarchy.clusters.l2cache.overallMshrMisses::processor.cores.core.data         8777                       # number of overall MSHR misses (Count)
board.cache_hierarchy.clusters.l2cache.overallMshrMisses::total         9853                       # number of overall MSHR misses (Count)
board.cache_hierarchy.clusters.l2cache.demandMshrMissLatency::processor.cores.core.inst     62088183                       # number of demand (read+write) MSHR miss ticks (Tick)
board.cache_hierarchy.clusters.l2cache.demandMshrMissLatency::processor.cores.core.data    530554581                       # number of demand (read+write) MSHR miss ticks (Tick)
board.cache_hierarchy.clusters.l2cache.demandMshrMissLatency::total    592642764                       # number of demand (read+write) MSHR miss ticks (Tick)
board.cache_hierarchy.clusters.l2cache.overallMshrMissLatency::processor.cores.core.inst     62088183                       # number of overall MSHR miss ticks (Tick)
board.cache_hierarchy.clusters.l2cache.overallMshrMissLatency::processor.cores.core.data    530554581                       # number of overall MSHR miss ticks (Tick)
board.cache_hierarchy.clusters.l2cache.overallMshrMissLatency::total    592642764                       # number of overall MSHR miss ticks (Tick)
board.cache_hierarchy.clusters.l2cache.demandMshrMissRate::processor.cores.core.inst     0.969369                       # mshr miss ratio for demand accesses (Ratio)
board.cache_hierarchy.clusters.l2cache.demandMshrMissRate::processor.cores.core.data     0.033893                       # mshr miss ratio for demand accesses (Ratio)
board.cache_hierarchy.clusters.l2cache.demandMshrMissRate::total     0.037885                       # mshr miss ratio for demand accesses (Ratio)
board.cache_hierarchy.clusters.l2cache.overallMshrMissRate::processor.cores.core.inst     0.969369                       # mshr miss ratio for overall accesses (Ratio)
board.cache_hierarchy.clusters.l2cache.overallMshrMissRate::processor.cores.core.data     0.033893                       # mshr miss ratio for overall accesses (Ratio)
board.cache_hierarchy.clusters.l2cache.overallMshrMissRate::total     0.037885                       # mshr miss ratio for overall accesses (Ratio)
board.cache_hierarchy.clusters.l2cache.demandAvgMshrMissLatency::processor.cores.core.inst 57702.772305                       # average overall mshr miss latency ((Tick/Count))
board.cache_hierarchy.clusters.l2cache.demandAvgMshrMissLatency::processor.cores.core.data 60448.283126                       # average overall mshr miss latency ((Tick/Count))
board.cache_hierarchy.clusters.l2cache.demandAvgMshrMissLatency::total 60148.458744                       # average overall mshr miss latency ((Tick/Count))
board.cache_hierarchy.clusters.l2cache.overallAvgMshrMissLatency::processor.cores.core.inst 57702.772305                       # average overall mshr miss latency ((Tick/Count))
board.cache_hierarchy.clusters.l2cache.overallAvgMshrMissLatency::processor.cores.core.data 60448.283126                       # average overall mshr miss latency ((Tick/Count))
board.cache_hierarchy.clusters.l2cache.overallAvgMshrMissLatency::total 60148.458744                       # average overall mshr miss latency ((Tick/Count))
board.cache_hierarchy.clusters.l2cache.replacements            0                       # number of replacements (Count)
board.cache_hierarchy.clusters.l2cache.ReadCleanReq.hits::processor.cores.core.inst           34                       # number of ReadCleanReq hits (Count)
board.cache_hierarchy.clusters.l2cache.ReadCleanReq.hits::total           34                       # number of ReadCleanReq hits (Count)
board.cache_hierarchy.clusters.l2cache.ReadCleanReq.misses::processor.cores.core.inst         1076                       # number of ReadCleanReq misses (Count)
board.cache_hierarchy.clusters.l2cache.ReadCleanReq.misses::total         1076                       # number of ReadCleanReq misses (Count)
board.cache_hierarchy.clusters.l2cache.ReadCleanReq.missLatency::processor.cores.core.inst     63162108                       # number of ReadCleanReq miss ticks (Tick)
board.cache_hierarchy.clusters.l2cache.ReadCleanReq.missLatency::total     63162108                       # number of ReadCleanReq miss ticks (Tick)
board.cache_hierarchy.clusters.l2cache.ReadCleanReq.accesses::processor.cores.core.inst         1110                       # number of ReadCleanReq accesses(hits+misses) (Count)
board.cache_hierarchy.clusters.l2cache.ReadCleanReq.accesses::total         1110                       # number of ReadCleanReq accesses(hits+misses) (Count)
board.cache_hierarchy.clusters.l2cache.ReadCleanReq.missRate::processor.cores.core.inst     0.969369                       # miss rate for ReadCleanReq accesses (Ratio)
board.cache_hierarchy.clusters.l2cache.ReadCleanReq.missRate::total     0.969369                       # miss rate for ReadCleanReq accesses (Ratio)
board.cache_hierarchy.clusters.l2cache.ReadCleanReq.avgMissLatency::processor.cores.core.inst 58700.843866                       # average ReadCleanReq miss latency ((Tick/Count))
board.cache_hierarchy.clusters.l2cache.ReadCleanReq.avgMissLatency::total 58700.843866                       # average ReadCleanReq miss latency ((Tick/Count))
board.cache_hierarchy.clusters.l2cache.ReadCleanReq.mshrMisses::processor.cores.core.inst         1076                       # number of ReadCleanReq MSHR misses (Count)
board.cache_hierarchy.clusters.l2cache.ReadCleanReq.mshrMisses::total         1076                       # number of ReadCleanReq MSHR misses (Count)
board.cache_hierarchy.clusters.l2cache.ReadCleanReq.mshrMissLatency::processor.cores.core.inst     62088183                       # number of ReadCleanReq MSHR miss ticks (Tick)
board.cache_hierarchy.clusters.l2cache.ReadCleanReq.mshrMissLatency::total     62088183                       # number of ReadCleanReq MSHR miss ticks (Tick)
board.cache_hierarchy.clusters.l2cache.ReadCleanReq.mshrMissRate::processor.cores.core.inst     0.969369                       # mshr miss rate for ReadCleanReq accesses (Ratio)
board.cache_hierarchy.clusters.l2cache.ReadCleanReq.mshrMissRate::total     0.969369                       # mshr miss rate for ReadCleanReq accesses (Ratio)
board.cache_hierarchy.clusters.l2cache.ReadCleanReq.avgMshrMissLatency::processor.cores.core.inst 57702.772305                       # average ReadCleanReq mshr miss latency ((Tick/Count))
board.cache_hierarchy.clusters.l2cache.ReadCleanReq.avgMshrMissLatency::total 57702.772305                       # average ReadCleanReq mshr miss latency ((Tick/Count))
board.cache_hierarchy.clusters.l2cache.ReadExReq.hits::processor.cores.core.data       103675                       # number of ReadExReq hits (Count)
board.cache_hierarchy.clusters.l2cache.ReadExReq.hits::total       103675                       # number of ReadExReq hits (Count)
board.cache_hierarchy.clusters.l2cache.ReadExReq.misses::processor.cores.core.data         8562                       # number of ReadExReq misses (Count)
board.cache_hierarchy.clusters.l2cache.ReadExReq.misses::total         8562                       # number of ReadExReq misses (Count)
board.cache_hierarchy.clusters.l2cache.ReadExReq.missLatency::processor.cores.core.data    526045761                       # number of ReadExReq miss ticks (Tick)
board.cache_hierarchy.clusters.l2cache.ReadExReq.missLatency::total    526045761                       # number of ReadExReq miss ticks (Tick)
board.cache_hierarchy.clusters.l2cache.ReadExReq.accesses::processor.cores.core.data       112237                       # number of ReadExReq accesses(hits+misses) (Count)
board.cache_hierarchy.clusters.l2cache.ReadExReq.accesses::total       112237                       # number of ReadExReq accesses(hits+misses) (Count)
board.cache_hierarchy.clusters.l2cache.ReadExReq.missRate::processor.cores.core.data     0.076285                       # miss rate for ReadExReq accesses (Ratio)
board.cache_hierarchy.clusters.l2cache.ReadExReq.missRate::total     0.076285                       # miss rate for ReadExReq accesses (Ratio)
board.cache_hierarchy.clusters.l2cache.ReadExReq.avgMissLatency::processor.cores.core.data 61439.588998                       # average ReadExReq miss latency ((Tick/Count))
board.cache_hierarchy.clusters.l2cache.ReadExReq.avgMissLatency::total 61439.588998                       # average ReadExReq miss latency ((Tick/Count))
board.cache_hierarchy.clusters.l2cache.ReadExReq.mshrMisses::processor.cores.core.data         8562                       # number of ReadExReq MSHR misses (Count)
board.cache_hierarchy.clusters.l2cache.ReadExReq.mshrMisses::total         8562                       # number of ReadExReq MSHR misses (Count)
board.cache_hierarchy.clusters.l2cache.ReadExReq.mshrMissLatency::processor.cores.core.data    517492323                       # number of ReadExReq MSHR miss ticks (Tick)
board.cache_hierarchy.clusters.l2cache.ReadExReq.mshrMissLatency::total    517492323                       # number of ReadExReq MSHR miss ticks (Tick)
board.cache_hierarchy.clusters.l2cache.ReadExReq.mshrMissRate::processor.cores.core.data     0.076285                       # mshr miss rate for ReadExReq accesses (Ratio)
board.cache_hierarchy.clusters.l2cache.ReadExReq.mshrMissRate::total     0.076285                       # mshr miss rate for ReadExReq accesses (Ratio)
board.cache_hierarchy.clusters.l2cache.ReadExReq.avgMshrMissLatency::processor.cores.core.data 60440.588998                       # average ReadExReq mshr miss latency ((Tick/Count))
board.cache_hierarchy.clusters.l2cache.ReadExReq.avgMshrMissLatency::total 60440.588998                       # average ReadExReq mshr miss latency ((Tick/Count))
board.cache_hierarchy.clusters.l2cache.ReadSharedReq.hits::processor.cores.core.data       146513                       # number of ReadSharedReq hits (Count)
board.cache_hierarchy.clusters.l2cache.ReadSharedReq.hits::total       146513                       # number of ReadSharedReq hits (Count)
board.cache_hierarchy.clusters.l2cache.ReadSharedReq.misses::processor.cores.core.data          215                       # number of ReadSharedReq misses (Count)
board.cache_hierarchy.clusters.l2cache.ReadSharedReq.misses::total          215                       # number of ReadSharedReq misses (Count)
board.cache_hierarchy.clusters.l2cache.ReadSharedReq.missLatency::processor.cores.core.data     13277043                       # number of ReadSharedReq miss ticks (Tick)
board.cache_hierarchy.clusters.l2cache.ReadSharedReq.missLatency::total     13277043                       # number of ReadSharedReq miss ticks (Tick)
board.cache_hierarchy.clusters.l2cache.ReadSharedReq.accesses::processor.cores.core.data       146728                       # number of ReadSharedReq accesses(hits+misses) (Count)
board.cache_hierarchy.clusters.l2cache.ReadSharedReq.accesses::total       146728                       # number of ReadSharedReq accesses(hits+misses) (Count)
board.cache_hierarchy.clusters.l2cache.ReadSharedReq.missRate::processor.cores.core.data     0.001465                       # miss rate for ReadSharedReq accesses (Ratio)
board.cache_hierarchy.clusters.l2cache.ReadSharedReq.missRate::total     0.001465                       # miss rate for ReadSharedReq accesses (Ratio)
board.cache_hierarchy.clusters.l2cache.ReadSharedReq.avgMissLatency::processor.cores.core.data 61753.688372                       # average ReadSharedReq miss latency ((Tick/Count))
board.cache_hierarchy.clusters.l2cache.ReadSharedReq.avgMissLatency::total 61753.688372                       # average ReadSharedReq miss latency ((Tick/Count))
board.cache_hierarchy.clusters.l2cache.ReadSharedReq.mshrMisses::processor.cores.core.data          215                       # number of ReadSharedReq MSHR misses (Count)
board.cache_hierarchy.clusters.l2cache.ReadSharedReq.mshrMisses::total          215                       # number of ReadSharedReq MSHR misses (Count)
board.cache_hierarchy.clusters.l2cache.ReadSharedReq.mshrMissLatency::processor.cores.core.data     13062258                       # number of ReadSharedReq MSHR miss ticks (Tick)
board.cache_hierarchy.clusters.l2cache.ReadSharedReq.mshrMissLatency::total     13062258                       # number of ReadSharedReq MSHR miss ticks (Tick)
board.cache_hierarchy.clusters.l2cache.ReadSharedReq.mshrMissRate::processor.cores.core.data     0.001465                       # mshr miss rate for ReadSharedReq accesses (Ratio)
board.cache_hierarchy.clusters.l2cache.ReadSharedReq.mshrMissRate::total     0.001465                       # mshr miss rate for ReadSharedReq accesses (Ratio)
board.cache_hierarchy.clusters.l2cache.ReadSharedReq.avgMshrMissLatency::processor.cores.core.data 60754.688372                       # average ReadSharedReq mshr miss latency ((Tick/Count))
board.cache_hierarchy.clusters.l2cache.ReadSharedReq.avgMshrMissLatency::total 60754.688372                       # average ReadSharedReq mshr miss latency ((Tick/Count))
board.cache_hierarchy.clusters.l2cache.WritebackDirty.hits::writebacks       258327                       # number of WritebackDirty hits (Count)
board.cache_hierarchy.clusters.l2cache.WritebackDirty.hits::total       258327                       # number of WritebackDirty hits (Count)
board.cache_hierarchy.clusters.l2cache.WritebackDirty.accesses::writebacks       258327                       # number of WritebackDirty accesses(hits+misses) (Count)
board.cache_hierarchy.clusters.l2cache.WritebackDirty.accesses::total       258327                       # number of WritebackDirty accesses(hits+misses) (Count)
board.cache_hierarchy.clusters.l2cache.power_state.pwrStateResidencyTicks::UNDEFINED  10613316393                       # Cumulative time (in ticks) in various power states (Tick)
board.cache_hierarchy.clusters.l2cache.tags.tagsInUse  5537.132405                       # Average ticks per tags in use ((Tick/Count))
board.cache_hierarchy.clusters.l2cache.tags.totalRefs       519124                       # Total number of references to valid blocks. (Count)
board.cache_hierarchy.clusters.l2cache.tags.sampledRefs         9852                       # Sample count of references to valid blocks. (Count)
board.cache_hierarchy.clusters.l2cache.tags.avgRefs    52.692245                       # Average number of references to valid blocks. ((Count/Count))
board.cache_hierarchy.clusters.l2cache.tags.warmupTick        72927                       # The tick when the warmup percentage was hit. (Tick)
board.cache_hierarchy.clusters.l2cache.tags.occupancies::processor.cores.core.inst   734.053793                       # Average occupied blocks per tick, per requestor ((Count/Tick))
board.cache_hierarchy.clusters.l2cache.tags.occupancies::processor.cores.core.data  4803.078611                       # Average occupied blocks per tick, per requestor ((Count/Tick))
board.cache_hierarchy.clusters.l2cache.tags.avgOccs::processor.cores.core.inst     0.044803                       # Average percentage of cache occupancy ((Ratio/Tick))
board.cache_hierarchy.clusters.l2cache.tags.avgOccs::processor.cores.core.data     0.293157                       # Average percentage of cache occupancy ((Ratio/Tick))
board.cache_hierarchy.clusters.l2cache.tags.avgOccs::total     0.337960                       # Average percentage of cache occupancy ((Ratio/Tick))
board.cache_hierarchy.clusters.l2cache.tags.occupanciesTaskId::1024         9852                       # Occupied blocks per task id (Count)
board.cache_hierarchy.clusters.l2cache.tags.ageTaskId_1024::0          184                       # Occupied blocks per task id, per block age (Count)
board.cache_hierarchy.clusters.l2cache.tags.ageTaskId_1024::1          214                       # Occupied blocks per task id, per block age (Count)
board.cache_hierarchy.clusters.l2cache.tags.ageTaskId_1024::2            3                       # Occupied blocks per task id, per block age (Count)
board.cache_hierarchy.clusters.l2cache.tags.ageTaskId_1024::3         8028                       # Occupied blocks per task id, per block age (Count)
board.cache_hierarchy.clusters.l2cache.tags.ageTaskId_1024::4         1423                       # Occupied blocks per task id, per block age (Count)
board.cache_hierarchy.clusters.l2cache.tags.ratioOccsTaskId::1024     0.601318                       # Ratio of occupied blocks and all blocks, per task id (Ratio)
board.cache_hierarchy.clusters.l2cache.tags.tagAccesses      8315852                       # Number of tag accesses (Count)
board.cache_hierarchy.clusters.l2cache.tags.dataAccesses      8315852                       # Number of data accesses (Count)
board.cache_hierarchy.clusters.l2cache.tags.power_state.pwrStateResidencyTicks::UNDEFINED  10613316393                       # Cumulative time (in ticks) in various power states (Tick)
board.cache_hierarchy.l3_bus.transDist::ReadResp         1290                       # Transaction distribution (Count)
board.cache_hierarchy.l3_bus.transDist::ReadExReq         8562                       # Transaction distribution (Count)
board.cache_hierarchy.l3_bus.transDist::ReadExResp         8562                       # Transaction distribution (Count)
board.cache_hierarchy.l3_bus.transDist::ReadSharedReq         1291                       # Transaction distribution (Count)
board.cache_hierarchy.l3_bus.pktCount_board.cache_hierarchy.clusters.l2cache.mem_side_port::board.cache_hierarchy.l3_cache.cpu_side_port        19705                       # Packet count per connected requestor and responder (Count)
board.cache_hierarchy.l3_bus.pktSize_board.cache_hierarchy.clusters.l2cache.mem_side_port::board.cache_hierarchy.l3_cache.cpu_side_port       630528                       # Cumulative packet size per connected requestor and responder (Byte)
board.cache_hierarchy.l3_bus.snoops                 0                       # Total snoops (Count)
board.cache_hierarchy.l3_bus.snoopTraffic            0                       # Total snoop traffic (Byte)
board.cache_hierarchy.l3_bus.snoopFanout::samples         9853                       # Request fanout histogram (Count)
board.cache_hierarchy.l3_bus.snoopFanout::mean            0                       # Request fanout histogram (Count)
board.cache_hierarchy.l3_bus.snoopFanout::stdev            0                       # Request fanout histogram (Count)
board.cache_hierarchy.l3_bus.snoopFanout::underflows            0      0.00%      0.00% # Request fanout histogram (Count)
board.cache_hierarchy.l3_bus.snoopFanout::0         9853    100.00%    100.00% # Request fanout histogram (Count)
board.cache_hierarchy.l3_bus.snoopFanout::1            0      0.00%    100.00% # Request fanout histogram (Count)
board.cache_hierarchy.l3_bus.snoopFanout::overflows            0      0.00%    100.00% # Request fanout histogram (Count)
board.cache_hierarchy.l3_bus.snoopFanout::min_value            0                       # Request fanout histogram (Count)
board.cache_hierarchy.l3_bus.snoopFanout::max_value            0                       # Request fanout histogram (Count)
board.cache_hierarchy.l3_bus.snoopFanout::total         9853                       # Request fanout histogram (Count)
board.cache_hierarchy.l3_bus.power_state.pwrStateResidencyTicks::UNDEFINED  10613316393                       # Cumulative time (in ticks) in various power states (Tick)
board.cache_hierarchy.l3_bus.reqLayer0.occupancy      3281049                       # Layer occupancy (ticks) (Tick)
board.cache_hierarchy.l3_bus.reqLayer0.utilization          0.0                       # Layer utilization (Ratio)
board.cache_hierarchy.l3_bus.respLayer0.occupancy      9842148                       # Layer occupancy (ticks) (Tick)
board.cache_hierarchy.l3_bus.respLayer0.utilization          0.0                       # Layer utilization (Ratio)
board.cache_hierarchy.l3_bus.snoop_filter.totRequests         9853                       # Total number of requests made to the snoop filter. (Count)
board.cache_hierarchy.l3_bus.snoop_filter.hitSingleRequests            0                       # Number of requests hitting in the snoop filter with a single holder of the requested data. (Count)
board.cache_hierarchy.l3_bus.snoop_filter.hitMultiRequests            0                       # Number of requests hitting in the snoop filter with multiple (>1) holders of the requested data. (Count)
board.cache_hierarchy.l3_bus.snoop_filter.totSnoops            0                       # Total number of snoops made to the snoop filter. (Count)
board.cache_hierarchy.l3_bus.snoop_filter.hitSingleSnoops            0                       # Number of snoops hitting in the snoop filter with a single holder of the requested data. (Count)
board.cache_hierarchy.l3_bus.snoop_filter.hitMultiSnoops            0                       # Number of snoops hitting in the snoop filter with multiple (>1) holders of the requested data. (Count)
board.cache_hierarchy.l3_cache.demandMisses::processor.cores.core.inst         1076                       # number of demand (read+write) misses (Count)
board.cache_hierarchy.l3_cache.demandMisses::processor.cores.core.data         8777                       # number of demand (read+write) misses (Count)
board.cache_hierarchy.l3_cache.demandMisses::total         9853                       # number of demand (read+write) misses (Count)
board.cache_hierarchy.l3_cache.overallMisses::processor.cores.core.inst         1076                       # number of overall misses (Count)
board.cache_hierarchy.l3_cache.overallMisses::processor.cores.core.data         8777                       # number of overall misses (Count)
board.cache_hierarchy.l3_cache.overallMisses::total         9853                       # number of overall misses (Count)
board.cache_hierarchy.l3_cache.demandMissLatency::processor.cores.core.inst     60291648                       # number of demand (read+write) miss ticks (Tick)
board.cache_hierarchy.l3_cache.demandMissLatency::processor.cores.core.data    515936547                       # number of demand (read+write) miss ticks (Tick)
board.cache_hierarchy.l3_cache.demandMissLatency::total    576228195                       # number of demand (read+write) miss ticks (Tick)
board.cache_hierarchy.l3_cache.overallMissLatency::processor.cores.core.inst     60291648                       # number of overall miss ticks (Tick)
board.cache_hierarchy.l3_cache.overallMissLatency::processor.cores.core.data    515936547                       # number of overall miss ticks (Tick)
board.cache_hierarchy.l3_cache.overallMissLatency::total    576228195                       # number of overall miss ticks (Tick)
board.cache_hierarchy.l3_cache.demandAccesses::processor.cores.core.inst         1076                       # number of demand (read+write) accesses (Count)
board.cache_hierarchy.l3_cache.demandAccesses::processor.cores.core.data         8777                       # number of demand (read+write) accesses (Count)
board.cache_hierarchy.l3_cache.demandAccesses::total         9853                       # number of demand (read+write) accesses (Count)
board.cache_hierarchy.l3_cache.overallAccesses::processor.cores.core.inst         1076                       # number of overall (read+write) accesses (Count)
board.cache_hierarchy.l3_cache.overallAccesses::processor.cores.core.data         8777                       # number of overall (read+write) accesses (Count)
board.cache_hierarchy.l3_cache.overallAccesses::total         9853                       # number of overall (read+write) accesses (Count)
board.cache_hierarchy.l3_cache.demandMissRate::processor.cores.core.inst            1                       # miss rate for demand accesses (Ratio)
board.cache_hierarchy.l3_cache.demandMissRate::processor.cores.core.data            1                       # miss rate for demand accesses (Ratio)
board.cache_hierarchy.l3_cache.demandMissRate::total            1                       # miss rate for demand accesses (Ratio)
board.cache_hierarchy.l3_cache.overallMissRate::processor.cores.core.inst            1                       # miss rate for overall accesses (Ratio)
board.cache_hierarchy.l3_cache.overallMissRate::processor.cores.core.data            1                       # miss rate for overall accesses (Ratio)
board.cache_hierarchy.l3_cache.overallMissRate::total            1                       # miss rate for overall accesses (Ratio)
board.cache_hierarchy.l3_cache.demandAvgMissLatency::processor.cores.core.inst 56033.130112                       # average overall miss latency in ticks ((Tick/Count))
[...]
board.processor.cores.core.executeStats0.numFpRegWrites     17108857                       # Number of times the floating registers were written (Count)
board.processor.cores.core.executeStats0.numIntRegReads     50405981                       # Number of times the integer registers were read (Count)
board.processor.cores.core.executeStats0.numIntRegWrites     27601179                       # Number of times the integer registers were written (Count)
board.processor.cores.core.executeStats0.numMemRefs     10386577                       # Number of memory refs (Count)
board.processor.cores.core.executeStats0.numMiscRegReads     17706330                       # Number of times the Misc registers were read (Count)
board.processor.cores.core.executeStats0.numVecAluAccesses            0                       # Number of vector alu accesses (Count)
board.processor.cores.core.executeStats0.numDiscardedOps            0                       # Number of ops (including micro ops) which were discarded before commit (Count)
board.processor.cores.core.fetch.predictedBranches      2886483                       # Number of branches that fetch has predicted taken (Count)
board.processor.cores.core.fetch.cycles      31739458                       # Number of cycles fetch has run and was not squashing or blocked (Cycle)
board.processor.cores.core.fetch.squashCycles         4528                       # Number of cycles fetch has spent squashing (Cycle)
board.processor.cores.core.fetch.tlbCycles            3                       # Number of cycles fetch has spent waiting for tlb (Cycle)
board.processor.cores.core.fetch.miscStallCycles         2493                       # Number of cycles fetch has spent waiting on interrupts, or bad addresses, or out of MSHRs (Cycle)
board.processor.cores.core.fetch.pendingTrapStallCycles          284                       # Number of stall cycles due to pending traps (Cycle)
board.processor.cores.core.fetch.icacheWaitRetryStallCycles         4646                       # Number of stall cycles due to full MSHR (Cycle)
board.processor.cores.core.fetch.cacheLines      4340597                       # Number of cache lines fetched (Count)
board.processor.cores.core.fetch.icacheSquashes          752                       # Number of outstanding Icache misses that were squashed (Count)
board.processor.cores.core.fetch.nisnDist::samples     31789019                       # Number of instructions fetched each cycle (Total) (Count)
board.processor.cores.core.fetch.nisnDist::mean     1.714538                       # Number of instructions fetched each cycle (Total) (Count)
board.processor.cores.core.fetch.nisnDist::stdev     3.140776                       # Number of instructions fetched each cycle (Total) (Count)
board.processor.cores.core.fetch.nisnDist::underflows            0      0.00%      0.00% # Number of instructions fetched each cycle (Total) (Count)
board.processor.cores.core.fetch.nisnDist::0     22371151     70.37%     70.37% # Number of instructions fetched each cycle (Total) (Count)
board.processor.cores.core.fetch.nisnDist::1       593962      1.87%     72.24% # Number of instructions fetched each cycle (Total) (Count)
board.processor.cores.core.fetch.nisnDist::2      1124661      3.54%     75.78% # Number of instructions fetched each cycle (Total) (Count)
board.processor.cores.core.fetch.nisnDist::3      1623801      5.11%     80.89% # Number of instructions fetched each cycle (Total) (Count)
board.processor.cores.core.fetch.nisnDist::4       690407      2.17%     83.06% # Number of instructions fetched each cycle (Total) (Count)
board.processor.cores.core.fetch.nisnDist::5       310816      0.98%     84.04% # Number of instructions fetched each cycle (Total) (Count)
board.processor.cores.core.fetch.nisnDist::6      1130979      3.56%     87.60% # Number of instructions fetched each cycle (Total) (Count)
board.processor.cores.core.fetch.nisnDist::7       568419      1.79%     89.38% # Number of instructions fetched each cycle (Total) (Count)
board.processor.cores.core.fetch.nisnDist::8       607634      1.91%     91.30% # Number of instructions fetched each cycle (Total) (Count)
board.processor.cores.core.fetch.nisnDist::9       824671      2.59%     93.89% # Number of instructions fetched each cycle (Total) (Count)
board.processor.cores.core.fetch.nisnDist::10      1942518      6.11%    100.00% # Number of instructions fetched each cycle (Total) (Count)
board.processor.cores.core.fetch.nisnDist::overflows            0      0.00%    100.00% # Number of instructions fetched each cycle (Total) (Count)
board.processor.cores.core.fetch.nisnDist::min_value            0                       # Number of instructions fetched each cycle (Total) (Count)
board.processor.cores.core.fetch.nisnDist::max_value           10                       # Number of instructions fetched each cycle (Total) (Count)
board.processor.cores.core.fetch.nisnDist::total     31789019                       # Number of instructions fetched each cycle (Total) (Count)
board.processor.cores.core.fetchStats0.numInsts     31498081                       # Number of instructions fetched (thread level) (Count)
board.processor.cores.core.fetchStats0.numOps            0                       # Number of ops (including micro ops) fetched (thread level) (Count)
board.processor.cores.core.fetchStats0.fetchRate     0.988274                       # Number of inst fetches per cycle ((Count/Cycle))
board.processor.cores.core.fetchStats0.numBranches      3161297                       # Number of branches fetched (Count)
board.processor.cores.core.fetchStats0.branchRate     0.099188                       # Number of branch fetches per cycle (Ratio)
board.processor.cores.core.fetchStats0.icacheStallCycles        39871                       # ICache total stall cycles (Cycle)
board.processor.cores.core.fetchStats0.numFetchSuspends            0                       # Number of times Execute suspended instruction fetching (Count)
board.processor.cores.core.iew.idleCycles            0                       # Number of cycles IEW is idle (Cycle)
board.processor.cores.core.iew.squashCycles         1692                       # Number of cycles IEW is squashing (Cycle)
board.processor.cores.core.iew.blockCycles        31386                       # Number of cycles IEW is blocking (Cycle)
board.processor.cores.core.iew.unblockCycles       256123                       # Number of cycles IEW is unblocking (Cycle)
board.processor.cores.core.iew.dispatchedInsts     54453637                       # Number of instructions dispatched to IQ (Count)
board.processor.cores.core.iew.dispSquashedInsts          145                       # Number of squashed instructions skipped by dispatch (Count)
board.processor.cores.core.iew.dispLoadInsts      6734331                       # Number of dispatched load instructions (Count)
board.processor.cores.core.iew.dispStoreInsts      3663141                       # Number of dispatched store instructions (Count)
board.processor.cores.core.iew.dispNonSpecInsts          172                       # Number of dispatched non-speculative instructions (Count)
board.processor.cores.core.iew.iqFullEvents       181391                       # Number of times the IQ has become full, causing a stall (Count)
board.processor.cores.core.iew.lsqFullEvents        74719                       # Number of times the LSQ has become full, causing a stall (Count)
board.processor.cores.core.iew.memOrderViolationEvents          189                       # Number of memory order violations (Count)
board.processor.cores.core.iew.predictedTakenIncorrect          256                       # Number of branches that were predicted taken incorrectly (Count)
board.processor.cores.core.iew.predictedNotTakenIncorrect         1586                       # Number of branches that were predicted not taken incorrectly (Count)
board.processor.cores.core.iew.branchMispredicts         1842                       # Number of branch mispredicts detected at execute (Count)
board.processor.cores.core.iew.instsToCommit     54384283                       # Cumulative count of insts sent to commit (Count)
board.processor.cores.core.iew.writebackCount     54383464                       # Cumulative count of insts written-back (Count)
board.processor.cores.core.iew.producerInst     39125313                       # Number of instructions producing a value (Count)
board.processor.cores.core.iew.consumerInst     63550248                       # Number of instructions consuming a value (Count)
board.processor.cores.core.iew.wbRate        1.706318                       # Insts written-back per cycle ((Count/Cycle))
board.processor.cores.core.iew.wbFanout      0.615659                       # Average fanout of values written-back ((Count/Count))
board.processor.cores.core.interrupts.clk_domain.clock         5328                       # Clock period in ticks (Tick)
board.processor.cores.core.lsq0.forwLoads       757219                       # Number of loads that had data forwarded from stores (Count)
board.processor.cores.core.lsq0.squashedLoads        15276                       # Number of loads squashed (Count)
board.processor.cores.core.lsq0.ignoredResponses            0                       # Number of memory responses ignored because the instruction is squashed (Count)
board.processor.cores.core.lsq0.memOrderViolation          189                       # Number of memory ordering violations (Count)
board.processor.cores.core.lsq0.squashedStores        11450                       # Number of stores squashed (Count)
board.processor.cores.core.lsq0.rescheduledLoads           13                       # Number of loads that were rescheduled (Count)
board.processor.cores.core.lsq0.blockedByCache         2057                       # Number of times an access to memory failed due to the cache being blocked (Count)
board.processor.cores.core.lsq0.loadToUse::samples      6719055                       # Distribution of cycle latency between the first time a load is issued and its completion (Unspecified)
board.processor.cores.core.lsq0.loadToUse::mean     3.324362                       # Distribution of cycle latency between the first time a load is issued and its completion (Unspecified)
board.processor.cores.core.lsq0.loadToUse::stdev     2.042707                       # Distribution of cycle latency between the first time a load is issued and its completion (Unspecified)
board.processor.cores.core.lsq0.loadToUse::0-9      6551615     97.51%     97.51% # Distribution of cycle latency between the first time a load is issued and its completion (Unspecified)
board.processor.cores.core.lsq0.loadToUse::10-19       167191      2.49%    100.00% # Distribution of cycle latency between the first time a load is issued and its completion (Unspecified)
board.processor.cores.core.lsq0.loadToUse::30-39            1      0.00%    100.00% # Distribution of cycle latency between the first time a load is issued and its completion (Unspecified)
board.processor.cores.core.lsq0.loadToUse::40-49            2      0.00%    100.00% # Distribution of cycle latency between the first time a load is issued and its completion (Unspecified)
board.processor.cores.core.lsq0.loadToUse::50-59            1      0.00%    100.00% # Distribution of cycle latency between the first time a load is issued and its completion (Unspecified)
board.processor.cores.core.lsq0.loadToUse::100-109            1      0.00%    100.00% # Distribution of cycle latency between the first time a load is issued and its completion (Unspecified)
board.processor.cores.core.lsq0.loadToUse::120-129            2      0.00%    100.00% # Distribution of cycle latency between the first time a load is issued and its completion (Unspecified)
board.processor.cores.core.lsq0.loadToUse::130-139            6      0.00%    100.00% # Distribution of cycle latency between the first time a load is issued and its completion (Unspecified)
board.processor.cores.core.lsq0.loadToUse::140-149            8      0.00%    100.00% # Distribution of cycle latency between the first time a load is issued and its completion (Unspecified)
board.processor.cores.core.lsq0.loadToUse::150-159          115      0.00%    100.00% # Distribution of cycle latency between the first time a load is issued and its completion (Unspecified)
board.processor.cores.core.lsq0.loadToUse::160-169           21      0.00%    100.00% # Distribution of cycle latency between the first time a load is issued and its completion (Unspecified)
board.processor.cores.core.lsq0.loadToUse::170-179            9      0.00%    100.00% # Distribution of cycle latency between the first time a load is issued and its completion (Unspecified)
board.processor.cores.core.lsq0.loadToUse::180-189            4      0.00%    100.00% # Distribution of cycle latency between the first time a load is issued and its completion (Unspecified)
board.processor.cores.core.lsq0.loadToUse::190-199           40      0.00%    100.00% # Distribution of cycle latency between the first time a load is issued and its completion (Unspecified)
board.processor.cores.core.lsq0.loadToUse::200-209           21      0.00%    100.00% # Distribution of cycle latency between the first time a load is issued and its completion (Unspecified)
board.processor.cores.core.lsq0.loadToUse::210-219            5      0.00%    100.00% # Distribution of cycle latency between the first time a load is issued and its completion (Unspecified)
board.processor.cores.core.lsq0.loadToUse::220-229            1      0.00%    100.00% # Distribution of cycle latency between the first time a load is issued and its completion (Unspecified)
board.processor.cores.core.lsq0.loadToUse::240-249            7      0.00%    100.00% # Distribution of cycle latency between the first time a load is issued and its completion (Unspecified)
board.processor.cores.core.lsq0.loadToUse::270-279            1      0.00%    100.00% # Distribution of cycle latency between the first time a load is issued and its completion (Unspecified)
board.processor.cores.core.lsq0.loadToUse::overflows            4      0.00%    100.00% # Distribution of cycle latency between the first time a load is issued and its completion (Unspecified)
board.processor.cores.core.lsq0.loadToUse::min_value            2                       # Distribution of cycle latency between the first time a load is issued and its completion (Unspecified)
board.processor.cores.core.lsq0.loadToUse::max_value         1123                       # Distribution of cycle latency between the first time a load is issued and its completion (Unspecified)
board.processor.cores.core.lsq0.loadToUse::total      6719055                       # Distribution of cycle latency between the first time a load is issued and its completion (Unspecified)
board.processor.cores.core.mmu.dtb.rdAccesses      6728637                       # TLB accesses on read requests (Count)
board.processor.cores.core.mmu.dtb.wrAccesses      3653862                       # TLB accesses on write requests (Count)
board.processor.cores.core.mmu.dtb.rdMisses         1950                       # TLB misses on read requests (Count)
board.processor.cores.core.mmu.dtb.wrMisses        29609                       # TLB misses on write requests (Count)
board.processor.cores.core.mmu.dtb.walker.power_state.pwrStateResidencyTicks::UNDEFINED  10613316393                       # Cumulative time (in ticks) in various power states (Tick)
board.processor.cores.core.mmu.itb.rdAccesses            0                       # TLB accesses on read requests (Count)
board.processor.cores.core.mmu.itb.wrAccesses      4340647                       # TLB accesses on write requests (Count)
board.processor.cores.core.mmu.itb.rdMisses            0                       # TLB misses on read requests (Count)
board.processor.cores.core.mmu.itb.wrMisses          126                       # TLB misses on write requests (Count)
board.processor.cores.core.mmu.itb.walker.power_state.pwrStateResidencyTicks::UNDEFINED  10613316393                       # Cumulative time (in ticks) in various power states (Tick)
board.processor.cores.core.power_state.pwrStateResidencyTicks::ON  10613316393                       # Cumulative time (in ticks) in various power states (Tick)
board.processor.cores.core.rename.squashCycles         1692                       # Number of cycles rename is squashing (Cycle)
board.processor.cores.core.rename.idleCycles      3020581                       # Number of cycles rename is idle (Cycle)
board.processor.cores.core.rename.blockCycles      7967232                       # Number of cycles rename is blocking (Cycle)
board.processor.cores.core.rename.serializeStallCycles         2291                       # count of cycles rename stalled for serializing inst (Cycle)
board.processor.cores.core.rename.runCycles      3343106                       # Number of cycles rename is running (Cycle)
board.processor.cores.core.rename.unblockCycles     17454117                       # Number of cycles rename is unblocking (Cycle)
board.processor.cores.core.rename.renamedInsts     54467760                       # Number of instructions processed by rename (Count)
board.processor.cores.core.rename.ROBFullEvents      2794775                       # Number of times rename has blocked due to ROB full (Count)
board.processor.cores.core.rename.IQFullEvents     12829596                       # Number of times rename has blocked due to IQ full (Count)
board.processor.cores.core.rename.SQFullEvents       754002                       # Number of times rename has blocked due to SQ full (Count)
board.processor.cores.core.rename.renamedOperands     87186261                       # Number of destination operands rename has renamed (Count)
board.processor.cores.core.rename.lookups    162228157                       # Number of register rename lookups that rename has made (Count)
board.processor.cores.core.rename.intLookups     50503898                       # Number of integer rename lookups (Count)
board.processor.cores.core.rename.fpLookups     33438451                       # Number of floating rename lookups (Count)
board.processor.cores.core.rename.committedMaps     86977622                       # Number of HB maps that are committed (Count)
board.processor.cores.core.rename.undoneMaps       208630                       # Number of HB maps that are undone due to squashing (Count)
board.processor.cores.core.rename.serializing           51                       # count of serializing insts renamed (Count)
board.processor.cores.core.rename.tempSerializing           52                       # count of temporary serializing insts renamed (Count)
board.processor.cores.core.rename.skidInsts     38855361                       # count of insts added to the skid buffer (Count)
board.processor.cores.core.rob.reads         85622818                       # The number of ROB reads (Count)
board.processor.cores.core.rob.writes       108922920                       # The number of ROB writes (Count)
board.processor.cores.core.thread_0.numInsts     31414516                       # Number of Instructions committed (Count)
board.processor.cores.core.thread_0.numOps     54341153                       # Number of Ops committed (Count)
board.processor.cores.core.thread_0.numMemRefs            0                       # Number of Memory References (Count)
board.processor.cores.core.workload.numSyscalls           20                       # Number of system calls (Count)
board.workload.inst.arm                             0                       # number of arm instructions executed (Count)
board.workload.inst.quiesce                         0                       # number of quiesce instructions executed (Count)

---------- End Simulation Statistics   ----------
