warn: Max ticks has already been set prior to setting it through the run call. In these cases the max ticks set through the `run` function is used
Global frequency set at 1000000000000 ticks per second
warn: No dot file generated. Please install pydot to generate the dot file and pdf.
src/mem/dram_interface.cc:690: warn: DRAM device capacity (16384 Mbytes) does not match the address range assigned (512 Mbytes)
src/mem/dram_interface.cc:690: warn: DRAM device capacity (16384 Mbytes) does not match the address range assigned (512 Mbytes)
src/base/statistics.hh:279: warn: One of the stats is a legacy stat. Legacy stat is a stat that does not belong to any statistics::Group. Legacy stat is deprecated.
src/base/remote_gdb.cc:418: warn: Sockets disabled, not accepting gdb connections
src/sim/process.cc:396: warn: Checkpoints for pipes, device drivers and sockets do not work.
gem5 Simulator System.  https://www.gem5.org
gem5 is copyrighted software; use the --copyright option for details.

gem5 version 24.0.0.1
gem5 compiled May 20 2025 10:13:28
gem5 started May 20 2025 10:22:58
gem5 executing on ce101.sci.unican.es, pid 2292501
command line: /nfs/home/ce/alonsoge/gem5/build/X86/gem5.opt --outdir=/nfs/home/ce/alonsoge/gem5/tfg/out/batch-Dividida-IQmax/NAS/generalBigO3/mg.W.x/IQs_4 /nfs/home/ce/alonsoge/gem5/tfg/configs/restore-checkpoint-divided.py --config generalBigO3 --ckpt_path /nfs/shared/ce/gem5/ckpts/x86/1core/1GB/NPB3.3-SER --application /nfs/shared/ce/gem5/bin/NPB3.3-SER/mg.W.x --num_cores 1 --mem_size 1 --works 2 --num_ticks 50000000000 --iq_size 900 --num_IQs 4 --num_DividedIQ_entries 225

info: Standard input is not a terminal, disabling listeners.
src/sim/simulate.cc:199: info: Entering event queue @ 441493394004.  Starting simulation...
Exiting @ tick 491493394004 because simulate() limit reached.
